19
Iteration:  4539
 C         0.853394         2.801614        -1.736190
 C         1.956596         1.892519        -1.289635
 C         3.108991         1.528849        -2.300058
 C         3.227582         0.221482        -1.429935
 O         3.908045        -0.956769        -1.672225
 C         1.804701         0.363410        -0.805198
 C         2.994387         0.766979        -0.032209
 O         3.245564        -0.046742         1.169552
 C         2.759459         2.233526         0.052910
 H        -0.036821         3.041165        -1.017621
 H         1.420042         3.741751        -1.919204
 H         0.578418         2.386491        -2.716358
 H         2.542115         1.290546        -3.217453
 H         4.022299         2.302804        -2.511438
 H         4.012998        -1.457029        -0.783183
 H         0.877071        -0.259389        -0.679090
 H         4.235451        -0.162283         1.230241
 H         2.081978         2.431430         0.920447
 H         3.580735         2.966594        -0.163819
