19
Iteration:  3571charge 0 multiplicity 1
 C         0.862191         2.967722        -1.773642
 C         1.900279         1.936244        -1.363169
 C         3.074314         1.387681        -2.265239
 C         3.163497         0.234332        -1.340466
 O         3.823767        -0.969991        -1.670006
 C         1.748762         0.431118        -0.803195
 C         2.935981         0.664940         0.098963
 O         3.512327        -0.088215         1.107385
 C         2.712481         2.242479         0.021199
 H         0.016979         3.021115        -1.087295
 H         1.553869         3.843953        -1.758082
 H         0.435770         2.823829        -2.775450
 H         2.710118         0.873955        -3.172279
 H         4.030869         1.832644        -2.525763
 H         4.302889        -1.306934        -0.901566
 H         0.933102        -0.338955        -0.755448
 H         4.408175         0.188059         0.922976
 H         2.037121         2.649248         0.799766
 H         3.654216         2.894405        -0.020328
