19
Iteration:  1922
 C         0.861042         2.775133        -1.812833
 C         2.004628         1.974815        -1.239227
 C         3.094228         1.544984        -2.262973
 C         3.074301         0.229242        -1.480624
 O         3.677054        -0.997013        -1.648255
 C         1.746768         0.479527        -0.866473
 C         3.056176         0.726789         0.044324
 O         3.644641        -0.050069         1.070376
 C         2.763733         2.168756         0.111536
 H        -0.044658         2.703334        -1.190716
 H         1.223352         3.798477        -2.117088
 H         0.743533         2.307953        -2.802495
 H         2.539923         1.260893        -3.214624
 H         3.997335         2.081786        -2.327472
 H         4.155742        -1.266281        -0.804383
 H         0.735687        -0.149208        -0.717563
 H         2.964599        -0.149194         1.728416
 H         2.002743         2.313473         0.983382
 H         3.570005         2.989680         0.393158
