19
Iteration:  1539charge 0 multiplicity 1
 C         0.870850         2.892617        -1.679683
 C         2.018316         1.933074        -1.363217
 C         2.997926         1.373675        -2.431333
 C         3.143244         0.239565        -1.389680
 O         3.901292        -0.884371        -1.688867
 C         1.767495         0.460366        -0.802709
 C         2.914297         0.699700         0.124089
 O         3.424232        -0.072112         1.210909
 C         2.805220         2.199307        -0.000625
 H         0.281127         3.054451        -0.733499
 H         1.178903         3.873124        -2.147268
 H         0.223378         2.326973        -2.329763
 H         2.464994         1.194118        -3.418282
 H         3.929760         1.931519        -2.657717
 H         3.771108        -1.581581        -1.005869
 H         0.794765        -0.192258        -0.784085
 H         4.397974        -0.277739         1.173029
 H         2.034307         2.486744         0.737964
 H         3.746482         2.840268        -0.050416
