19
Iteration:  4351
 C         0.942370         2.791688        -1.829985
 C         1.938300         1.934624        -1.290661
 C         3.178562         1.416225        -2.326278
 C         3.089846         0.236541        -1.376579
 O         3.885592        -0.883037        -1.644920
 C         1.791716         0.422387        -0.806915
 C         2.961184         0.733214         0.113665
 O         3.432231        -0.077367         1.155056
 C         2.677854         2.183896         0.050396
 H         0.014653         2.895887        -1.209291
 H         1.225253         3.893652        -1.845380
 H         0.666033         2.395948        -2.808832
 H         2.631588         1.103548        -3.169093
 H         3.852196         2.260112        -2.484115
 H         3.626871        -1.237182        -2.553381
 H         0.995269        -0.291654        -0.732515
 H         3.653654         0.464475         1.946381
 H         1.943478         2.497760         0.793195
 H         3.591470         2.685388         0.120930
