19
Iteration:  4770charge 0 multiplicity 1
 C         0.944100         2.887738        -1.768228
 C         1.923826         1.917346        -1.270158
 C         3.023327         1.458238        -2.221077
 C         3.160090         0.147652        -1.391938
 O         3.982234        -0.918521        -1.566840
 C         1.746046         0.345021        -0.814212
 C         2.959751         0.707565         0.044529
 O         3.487078        -0.027559         1.007933
 C         2.705824         2.286599         0.007888
 H         0.329849         3.350855        -0.977912
 H         1.397814         3.756849        -2.156748
 H         0.355778         2.487119        -2.584808
 H         2.659800         1.325409        -3.214711
 H         3.798095         2.183258        -2.300582
 H         3.416938        -1.742945        -1.495569
 H         0.786745        -0.252109        -0.598641
 H         2.925611        -0.769159         1.363593
 H         1.991260         2.699519         0.764198
 H         3.526563         3.025399        -0.278435
