19
Iteration:  1916
 C         0.888632         2.750880        -1.758982
 C         2.035569         2.008373        -1.245724
 C         3.047930         1.544468        -2.306243
 C         3.118833         0.207830        -1.420613
 O         3.666000        -0.979642        -1.652014
 C         1.793218         0.456716        -0.885034
 C         2.988708         0.683348         0.045321
 O         3.649016        -0.032503         1.060984
 C         2.735217         2.196231         0.135097
 H        -0.080610         2.893957        -1.258351
 H         1.199723         3.725641        -2.156649
 H         0.542627         2.392458        -2.776286
 H         2.724482         1.095371        -3.235810
 H         4.014662         2.158771        -2.385737
 H         4.018876        -1.263354        -0.799246
 H         0.900743         0.015651        -0.894812
 H         2.946298        -0.119689         1.723249
 H         2.066750         2.227521         0.942914
 H         3.574562         2.822508         0.144870
