19
Iteration:  3848
 C         0.922683         2.787720        -1.811954
 C         1.958924         1.982845        -1.265421
 C         3.128443         1.457185        -2.240387
 C         3.134365         0.248002        -1.434817
 O         3.753165        -0.993734        -1.772602
 C         1.811190         0.388733        -0.710402
 C         2.913554         0.752336         0.130233
 O         3.468071        -0.029406         1.130582
 C         2.706439         2.243611         0.013367
 H         0.035203         2.937620        -1.116351
 H         1.399639         3.756471        -2.243560
 H         0.458286         2.361907        -2.745210
 H         2.799037         1.300975        -3.315651
 H         4.015329         2.084051        -2.118314
 H         3.840038        -1.524395        -0.961055
 H         1.006728        -0.298936        -0.647489
 H         4.416253         0.039113         1.240890
 H         2.055568         2.749167         0.698427
 H         3.758040         2.567405        -0.069921
