19
Iteration:  4871
 C         0.820470         2.730530        -1.692941
 C         1.989641         1.958727        -1.326535
 C         3.216029         1.397918        -2.372311
 C         3.196883         0.258645        -1.416138
 O         3.720735        -0.963878        -1.726279
 C         1.807624         0.443850        -0.849625
 C         2.974937         0.738807         0.074324
 O         3.449603        -0.046781         1.225546
 C         2.768223         2.271830         0.066597
 H         0.068143         2.652578        -0.937851
 H         0.977805         3.733123        -1.990899
 H         0.207583         2.243656        -2.484067
 H         2.765511         0.942004        -3.195591
 H         4.054952         2.006698        -2.573875
 H         4.687465        -0.917184        -1.719974
 H         0.850118         0.012340        -1.057365
 H         2.924414         0.321115         1.946187
 H         2.005342         2.505752         0.810905
 H         3.688804         2.991630         0.032016
