19
Iteration:  3269charge 0 multiplicity 1
 C         0.851752         2.982064        -1.766195
 C         1.923518         1.916201        -1.336806
 C         3.004165         1.474176        -2.316271
 C         3.151196         0.212501        -1.310851
 O         3.858744        -0.987720        -1.633399
 C         1.816375         0.404259        -0.810072
 C         2.979293         0.749567         0.132294
 O         3.469149        -0.179340         1.020040
 C         2.773042         2.227740        -0.051310
 H         0.075037         3.036385        -1.012153
 H         1.334594         4.017634        -1.846134
 H         0.338600         2.714292        -2.728745
 H         2.737880         1.168878        -3.271807
 H         3.871113         2.121188        -2.291770
 H         3.917304        -1.429027        -0.772726
 H         1.118145        -0.433965        -0.602289
 H         3.797729         0.340179         1.757140
 H         2.142331         2.553685         0.855419
 H         3.667027         2.904615        -0.153913
