19
Iteration:  4533
 C         0.913632         2.802348        -1.746129
 C         1.924514         1.898788        -1.290918
 C         3.099677         1.517820        -2.260137
 C         3.216423         0.231123        -1.496475
 O         3.887406        -0.927518        -1.641129
 C         1.794717         0.392867        -0.830557
 C         3.022061         0.674300        -0.023020
 O         3.291969        -0.016729         1.204460
 C         2.711586         2.220072         0.017358
 H         0.189901         2.960138        -0.983288
 H         1.290686         3.830484        -1.862221
 H         0.694799         2.316381        -2.723412
 H         2.794940         1.275452        -3.316147
 H         3.653382         2.380354        -2.369621
 H         3.757737        -1.516505        -0.906478
 H         0.993544        -0.262207        -0.644478
 H         4.262537        -0.259326         1.192050
 H         2.043961         2.486901         0.836376
 H         3.491912         2.976458        -0.060710
