19
Iteration:  1617
 C         0.892404         2.781800        -1.775293
 C         1.991137         1.971677        -1.262607
 C         3.037961         1.431397        -2.257173
 C         3.174340         0.212360        -1.392918
 O         3.722044        -0.980920        -1.640477
 C         1.713421         0.501288        -0.875092
 C         2.903330         0.674435         0.033953
 O         3.625929        -0.054085         1.004198
 C         2.762558         2.217467         0.138736
 H         0.077563         2.747780        -1.040295
 H         1.217816         3.845167        -1.919971
 H         0.463749         2.494891        -2.742981
 H         2.604488         0.942890        -3.169453
 H         3.974645         2.059882        -2.502151
 H         4.540368        -0.991299        -1.057164
 H         0.785291         0.057727        -0.994914
 H         3.438451         0.287662         1.933212
 H         2.156677         2.681676         0.949084
 H         3.710248         2.869576         0.021449
