19
Iteration:  3894
 C         0.936383         2.959394        -1.783686
 C         1.970580         1.937963        -1.293968
 C         2.986916         1.393078        -2.375266
 C         3.150624         0.216540        -1.399250
 O         3.895065        -0.991039        -1.607679
 C         1.755779         0.398303        -0.785896
 C         2.941124         0.698701         0.064387
 O         3.469079        -0.047832         1.081377
 C         2.736589         2.245518         0.103422
 H        -0.019052         2.925327        -1.147849
 H         1.339037         3.966306        -2.008492
 H         0.503730         2.609138        -2.774040
 H         2.308655         1.111080        -3.154241
 H         3.819304         2.039564        -2.701614
 H         4.030431        -1.500989        -0.811788
 H         0.840417        -0.243655        -0.666428
 H         4.415810         0.006980         1.132888
 H         2.015237         2.372658         0.875605
 H         3.425136         3.066986        -0.061255
