19
Iteration:  3534
 C         0.807852         2.763223        -1.824460
 C         1.970069         1.944338        -1.208002
 C         3.109601         1.466231        -2.323245
 C         3.199088         0.228868        -1.470416
 O         3.741361        -1.033063        -1.677096
 C         1.781757         0.486551        -0.779621
 C         3.029582         0.690738        -0.010916
 O         3.461522        -0.070414         1.103126
 C         2.792499         2.225379         0.117274
 H         0.026548         3.150474        -1.057848
 H         1.346216         3.739167        -1.975695
 H         0.473574         2.518141        -2.884072
 H         2.504556         1.432793        -3.285487
 H         4.027837         2.212380        -2.392496
 H         3.999663        -1.223677        -0.736920
 H         0.806141         0.093138        -0.611551
 H         3.963798         0.488999         1.724478
 H         1.848768         2.674676         0.775516
 H         3.709756         2.819158         0.230589
