19
Iteration:  2433charge 0 multiplicity 1
 C         0.924303         2.911994        -1.829253
 C         1.988076         1.996053        -1.220090
 C         2.955063         1.479931        -2.290169
 C         3.109607         0.219361        -1.417584
 O         3.723403        -1.006705        -1.669541
 C         1.754679         0.363715        -0.837304
 C         2.969647         0.685836         0.058328
 O         3.629727         0.040113         1.140004
 C         2.795294         2.124927         0.074144
 H         0.092409         3.142832        -1.136501
 H         1.388680         3.801573        -2.108904
 H         0.529350         2.573531        -2.793070
 H         2.496124         1.259913        -3.251807
 H         3.955655         1.994584        -2.503056
 H         4.632878        -0.957583        -1.245170
 H         0.898223        -0.185875        -0.586530
 H         2.870688        -0.518548         1.479853
 H         2.078954         2.301722         0.849273
 H         3.688042         2.600385        -0.069218
