19
Iteration:  3939
 C         0.772451         2.911412        -1.688893
 C         1.987846         1.987948        -1.323361
 C         3.086862         1.356433        -2.289330
 C         3.185152         0.209841        -1.374198
 O         3.946627        -1.021093        -1.660749
 C         1.699086         0.431532        -0.813210
 C         2.936526         0.729210         0.019547
 O         3.408974        -0.102637         1.101853
 C         2.812116         2.304634        -0.043121
 H         0.102582         3.047591        -0.794061
 H         1.245585         3.852559        -2.037400
 H         0.045437         2.552879        -2.471891
 H         2.623374         1.059206        -3.165143
 H         4.028941         1.915758        -2.396854
 H         3.999899        -1.486675        -0.818712
 H         0.754710        -0.112671        -0.722211
 H         4.016543         0.490506         1.509695
 H         2.193080         2.696776         0.738714
 H         3.779800         2.713133        -0.137826
