19
Iteration:  4515
 C         0.840628         2.871538        -1.820151
 C         1.959825         1.910691        -1.359979
 C         3.131227         1.506617        -2.270229
 C         3.186247         0.237047        -1.336884
 O         3.895035        -0.938847        -1.678363
 C         1.781949         0.355949        -0.893184
 C         2.959794         0.748756         0.102814
 O         3.426700        -0.013392         1.208319
 C         2.673279         2.148720         0.057589
 H         0.054811         2.994177        -1.046069
 H         1.339288         3.870976        -1.872890
 H         0.425777         2.620211        -2.802033
 H         2.643343         1.369466        -3.276877
 H         4.209980         1.893246        -2.293807
 H         3.408401        -1.710712        -1.368670
 H         0.845440        -0.297596        -0.844008
 H         4.394873        -0.211369         1.051537
 H         1.850334         2.391114         0.826106
 H         3.524804         2.894987         0.009501
