19
Iteration:  4912charge 0 multiplicity 1
 C         0.801149         2.886346        -1.814093
 C         1.904523         1.894423        -1.271609
 C         3.026642         1.465321        -2.300366
 C         3.179317         0.221474        -1.418256
 O         3.891664        -0.936327        -1.594198
 C         1.709458         0.425201        -0.799063
 C         3.069129         0.669343         0.029049
 O         3.539446        -0.075871         1.134461
 C         2.761891         2.272108        -0.034037
 H         0.177172         3.344949        -1.001150
 H         1.457925         3.704148        -2.068527
 H         0.192633         2.598779        -2.724244
 H         2.607561         1.307088        -3.327266
 H         4.025005         2.015831        -2.242045
 H         3.986356        -1.274141        -0.648329
 H         0.898781        -0.230232        -0.657391
 H         2.834166        -0.783314         1.263916
 H         2.150205         2.496852         0.843386
 H         3.594386         2.932130        -0.166361
