19
Iteration:  1124
 C         0.845311         2.804369        -1.834809
 C         1.929841         1.989988        -1.249983
 C         3.069148         1.484667        -2.254340
 C         3.202699         0.242348        -1.400587
 O         3.743268        -1.071788        -1.647040
 C         1.791654         0.427541        -0.758160
 C         3.020257         0.705170        -0.007785
 O         3.587058         0.057817         1.052830
 C         2.708143         2.200614         0.095632
 H        -0.080107         2.973335        -1.221357
 H         1.220134         3.845122        -1.992643
 H         0.518131         2.509038        -2.836407
 H         2.585328         1.078241        -3.183461
 H         3.930469         2.098886        -2.281746
 H         4.468212        -1.172055        -1.021769
 H         0.989346        -0.389193        -0.688878
 H         3.068657        -0.659715         1.437725
 H         1.942457         2.548539         0.920541
 H         3.511659         3.063978        -0.088946
