19
Iteration:  1409charge 0 multiplicity 1
 C         0.903582         2.883445        -1.857629
 C         1.974646         1.978224        -1.275947
 C         3.034066         1.398956        -2.303715
 C         3.077702         0.174465        -1.399276
 O         3.758354        -1.047752        -1.590695
 C         1.765334         0.440972        -0.796191
 C         2.960686         0.739591         0.092229
 O         3.644655         0.069200         1.005436
 C         2.668176         2.178360         0.150304
 H         0.203345         2.867532        -0.984022
 H         1.359391         3.879673        -2.088849
 H         0.381064         2.512440        -2.711918
 H         2.518295         1.134114        -3.208755
 H         3.908281         2.058186        -2.334859
 H         4.672069        -0.801206        -1.554764
 H         0.791827        -0.102245        -0.586750
 H         3.875187        -0.821311         0.784892
 H         1.939695         2.491203         0.916140
 H         3.530410         2.838700         0.433834
