19
Iteration:  2572charge 0 multiplicity 1
 C         0.949305         2.947224        -1.837118
 C         1.941724         1.936531        -1.250608
 C         3.044503         1.374387        -2.281170
 C         3.041757         0.173173        -1.432043
 O         3.792785        -0.914180        -1.707996
 C         1.759512         0.402050        -0.756514
 C         2.901610         0.683515         0.156702
 O         3.677589        -0.058020         1.013386
 C         2.755242         2.242271         0.116518
 H         0.326923         3.338827        -1.035903
 H         1.470895         3.671484        -2.462657
 H         0.266800         2.395914        -2.553807
 H         2.548106         1.269163        -3.244542
 H         3.897553         2.005577        -2.308290
 H         3.590309        -1.590626        -1.067474
 H         0.847783        -0.128596        -0.740990
 H         3.259625         0.065908         1.916158
 H         2.083234         2.635372         0.842544
 H         3.706275         2.708653        -0.207331
