19
Iteration:   980charge 0 multiplicity 1
 C         0.784660         2.749608        -1.824032
 C         1.991181         1.977976        -1.235376
 C         3.108585         1.491020        -2.293261
 C         3.115480         0.241467        -1.434235
 O         3.725177        -1.018836        -1.605327
 C         1.752799         0.431404        -0.852071
 C         3.064385         0.702535         0.021976
 O         3.556234         0.033274         1.147486
 C         2.787911         2.214310         0.053669
 H        -0.157575         2.913706        -1.285237
 H         1.066069         3.775358        -1.972087
 H         0.548298         2.389059        -2.905136
 H         2.652885         1.486872        -3.245884
 H         3.993601         2.027050        -2.146112
 H         4.618786        -1.058284        -1.311409
 H         0.804436        -0.243558        -0.633025
 H         2.926789        -0.625284         1.407929
 H         2.349917         2.484558         1.025085
 H         3.675340         2.848370        -0.228983
