19
Iteration:   450charge 0 multiplicity 1
 C         0.836027         2.871666        -1.850160
 C         1.915515         1.897786        -1.245294
 C         3.084903         1.494940        -2.231690
 C         3.200448         0.214210        -1.413543
 O         3.753370        -0.964456        -1.740261
 C         1.748699         0.416161        -0.758032
 C         2.936179         0.667432         0.083349
 O         3.588697        -0.035620         1.066664
 C         2.736101         2.172275         0.038687
 H         0.032170         2.973538        -1.179161
 H         1.305861         3.838726        -1.986890
 H         0.548426         2.457879        -2.756588
 H         2.821258         1.423409        -3.302735
 H         4.013494         2.233214        -2.110097
 H         4.283316        -1.355101        -1.072139
 H         1.019434        -0.160546        -0.464949
 H         3.409074         0.356486         1.916091
 H         2.137056         2.544702         0.966109
 H         3.698853         2.795947        -0.103844
