19
Iteration:  3921charge 0 multiplicity 1
 C         0.916910         2.940011        -1.672589
 C         1.900131         1.847040        -1.357947
 C         3.028594         1.404008        -2.352685
 C         3.159558         0.243300        -1.368124
 O         3.844427        -0.919788        -1.559310
 C         1.817260         0.414314        -0.843996
 C         2.998094         0.732179         0.045903
 O         3.388655        -0.106012         1.104502
 C         2.782874         2.217448        -0.045959
 H         0.215788         3.051418        -0.870937
 H         1.260007         3.912044        -1.973522
 H         0.403373         2.577464        -2.549887
 H         2.557949         1.068062        -3.334166
 H         3.809872         2.128177        -2.655969
 H         4.064902        -1.346172        -0.729715
 H         1.055478        -0.277183        -0.611399
 H         4.304110        -0.011566         1.345249
 H         2.119731         2.601256         0.812647
 H         3.473315         3.052488        -0.393183
