19
Iteration:  3900charge 0 multiplicity 1
 C         0.917864         2.889726        -1.789080
 C         1.959664         1.961597        -1.289200
 C         2.958986         1.407059        -2.383447
 C         3.205046         0.227953        -1.426039
 O         3.877052        -0.979359        -1.592920
 C         1.762677         0.372546        -0.720071
 C         2.922374         0.697943         0.049783
 O         3.447659        -0.048422         1.076156
 C         2.747838         2.242380         0.042924
 H         0.267440         3.125824        -0.961140
 H         1.398210         3.916433        -1.814877
 H         0.553229         2.806797        -2.798416
 H         2.440303         1.215682        -3.425972
 H         3.797394         2.009067        -2.789634
 H         4.016960        -1.361619        -0.666671
 H         0.957926        -0.298387        -0.764510
 H         4.430403        -0.183148         1.247988
 H         1.930384         2.491636         0.828481
 H         3.554654         3.054366         0.210835
