19
Iteration:  2624
 C         0.834907         2.917759        -1.686309
 C         1.955608         1.951768        -1.330414
 C         3.114550         1.394830        -2.335904
 C         3.161397         0.253888        -1.363616
 O         3.686983        -1.048692        -1.708888
 C         1.769414         0.411091        -0.755496
 C         2.976287         0.741906         0.129809
 O         3.573069        -0.118405         1.100137
 C         2.806461         2.339353        -0.037548
 H         0.047647         2.910855        -1.002241
 H         1.254195         3.960334        -1.784478
 H         0.567149         2.602629        -2.640564
 H         2.588455         1.083276        -3.318123
 H         3.993801         1.938879        -2.831486
 H         4.531184        -1.176387        -1.285220
 H         1.062176        -0.353949        -0.770327
 H         2.925556        -0.014877         1.836657
 H         1.960479         2.669070         0.708936
 H         3.724622         2.849272        -0.003372
