19
Iteration:  3093charge 0 multiplicity 1
 C         0.860352         2.909844        -1.771608
 C         1.943359         2.005298        -1.229532
 C         2.992528         1.495869        -2.289394
 C         3.236135         0.277327        -1.406542
 O         3.776544        -1.050775        -1.538403
 C         1.749950         0.475839        -0.823306
 C         3.031267         0.663479         0.002683
 O         3.563900        -0.095113         0.997694
 C         2.790356         2.191932         0.012203
 H         0.083854         3.025773        -1.053103
 H         1.147023         3.977459        -2.062185
 H         0.541467         2.301397        -2.655132
 H         2.536320         1.209964        -3.240747
 H         3.941453         2.019642        -2.727077
 H         4.172577        -1.373781        -0.678574
 H         0.749832        -0.092463        -0.775298
 H         2.844176        -0.170693         1.633815
 H         1.878347         2.258154         0.718943
 H         3.658997         2.869832         0.170741
