19
Iteration:  2616charge 0 multiplicity 1
 C         0.854408         2.922465        -1.739334
 C         1.961136         1.973638        -1.286205
 C         3.058530         1.401476        -2.337766
 C         3.197953         0.221728        -1.317165
 O         3.691035        -1.032484        -1.739447
 C         1.777700         0.412941        -0.783517
 C         3.013935         0.748253         0.092029
 O         3.576846        -0.070630         1.085257
 C         2.762812         2.264961        -0.001867
 H         0.042825         2.952874        -1.016908
 H         1.384730         3.862010        -1.848645
 H         0.411251         2.723941        -2.760914
 H         2.597283         0.959919        -3.181194
 H         3.997866         1.881148        -2.438409
 H         4.368288        -1.305156        -1.125599
 H         0.809372        -0.136793        -0.702622
 H         3.037675        -0.082431         1.921114
 H         2.123951         2.443313         0.935783
 H         3.664223         2.930792        -0.218906
