19
Iteration:  1736charge 0 multiplicity 1
 C         0.828759         2.873779        -1.775879
 C         1.930131         1.865119        -1.313382
 C         3.090186         1.481717        -2.236228
 C         3.213417         0.259363        -1.327721
 O         3.688731        -1.015821        -1.696548
 C         1.823445         0.377798        -0.799937
 C         2.961023         0.788833         0.075888
 O         3.577889        -0.115865         1.017190
 C         2.715050         2.300659         0.059556
 H         0.124971         3.172457        -0.999674
 H         1.464705         3.747538        -2.086451
 H         0.392952         2.610310        -2.703165
 H         2.818891         0.900951        -3.129841
 H         3.932184         2.137820        -2.247508
 H         4.605909        -1.137334        -1.373496
 H         1.005036        -0.302535        -0.747877
 H         3.160085        -0.129443         1.877374
 H         2.116197         2.810370         0.749086
 H         3.604669         2.851492        -0.043999
