19
Iteration:  2322charge 0 multiplicity 1
 C         0.877663         2.929823        -1.699302
 C         1.899862         1.879936        -1.324373
 C         3.068109         1.362043        -2.271046
 C         3.100762         0.177246        -1.409659
 O         3.845618        -0.971990        -1.783797
 C         1.803293         0.449205        -0.701920
 C         2.980617         0.787103         0.141481
 O         3.458418        -0.091766         1.110301
 C         2.841893         2.255696        -0.068464
 H         0.178139         2.862840        -0.852236
 H         1.300034         3.908191        -1.687786
 H         0.485151         2.783587        -2.798568
 H         2.745868         1.114847        -3.277506
 H         3.967627         2.043544        -2.543658
 H         4.468995        -1.267378        -1.132507
 H         0.903290        -0.217365        -0.677856
 H         2.840843        -0.234610         1.811438
 H         2.019084         2.739260         0.655116
 H         3.601264         3.116122        -0.109376
