19
Iteration:  4623charge 0 multiplicity 1
 C         0.862808         2.981650        -1.794531
 C         1.891480         1.924792        -1.278591
 C         3.097270         1.423149        -2.247578
 C         3.185336         0.193744        -1.458183
 O         3.890186        -1.005423        -1.561397
 C         1.780633         0.468880        -0.868042
 C         2.953908         0.698020         0.006752
 O         3.598192        -0.045791         1.087734
 C         2.617396         2.162854         0.037608
 H         0.150532         3.344673        -1.077439
 H         1.326019         3.933614        -2.179574
 H         0.317437         2.608550        -2.674118
 H         2.795969         1.295795        -3.307734
 H         3.880935         2.110082        -2.299827
 H         4.055734        -1.238190        -0.643964
 H         0.912760        -0.201485        -0.616376
 H         2.971986        -0.738925         1.373294
 H         1.988248         2.444677         0.909531
 H         3.369564         2.947718        -0.059987
