19
Iteration:  2518
 C         0.850961         2.867143        -1.676392
 C         2.063791         1.996613        -1.293602
 C         2.976083         1.501004        -2.392408
 C         3.111892         0.148247        -1.433044
 O         3.806688        -1.034148        -1.585662
 C         1.744529         0.388251        -0.828550
 C         2.976503         0.708087        -0.003438
 O         3.473893        -0.027477         1.049730
 C         2.915467         2.231877         0.048529
 H         0.132346         3.064949        -0.829678
 H         1.216506         3.865441        -2.077400
 H         0.158519         2.317606        -2.459229
 H         2.489464         1.248932        -3.288603
 H         3.804175         2.217341        -2.345220
 H         4.483344        -1.113904        -0.925536
 H         0.980985        -0.216179        -0.491108
 H         2.670191        -0.276295         1.574228
 H         2.387997         2.644611         0.930794
 H         3.760367         3.060681         0.042049
