19
Iteration:   856charge 0 multiplicity 1
 C         0.836261         2.775485        -1.751184
 C         1.990780         1.979960        -1.259894
 C         3.013950         1.380349        -2.315220
 C         3.219326         0.266811        -1.318556
 O         3.877525        -1.006342        -1.758863
 C         1.788573         0.495173        -0.790985
 C         2.978506         0.737650         0.079195
 O         3.449098        -0.058579         1.121786
 C         2.800010         2.287176        -0.033347
 H         0.018162         2.855965        -0.976871
 H         1.025325         3.881280        -2.030393
 H         0.280760         2.382835        -2.599288
 H         2.612572         1.147297        -3.257918
 H         3.958840         1.928096        -2.505940
 H         4.042198        -1.614137        -1.013458
 H         0.988498        -0.029363        -0.479562
 H         2.717077        -0.255600         1.714161
 H         2.162915         2.619947         0.781811
 H         3.687555         2.979409        -0.147833
