19
Iteration:  2934
 C         0.919356         2.909938        -1.776067
 C         2.008915         1.960124        -1.277167
 C         3.080083         1.392750        -2.286225
 C         3.122523         0.265598        -1.310934
 O         3.711543        -1.003435        -1.519522
 C         1.688504         0.487503        -0.853459
 C         2.948636         0.726050         0.104892
 O         3.576476        -0.072286         1.030518
 C         2.770840         2.185096         0.040984
 H         0.106051         2.977357        -0.969490
 H         1.202704         3.925856        -1.983569
 H         0.363659         2.444605        -2.638226
 H         2.530564         1.275643        -3.245702
 H         3.859740         1.967609        -2.700886
 H         4.514250        -0.944551        -2.056956
 H         0.859386        -0.323674        -0.825516
 H         3.931116        -0.791446         0.450141
 H         2.054230         2.679757         0.841569
 H         3.740142         2.802924        -0.118568
