19
Iteration:  4976
 C         0.801043         2.957932        -1.800032
 C         1.926488         1.990532        -1.319407
 C         3.011522         1.438139        -2.340473
 C         3.187951         0.257432        -1.437448
 O         3.866901        -0.920349        -1.560867
 C         1.771613         0.274461        -0.798559
 C         3.014498         0.687207        -0.001349
 O         3.468718        -0.107937         1.144839
 C         2.756981         2.149079         0.026499
 H         0.103387         3.290840        -0.991599
 H         1.313355         3.936097        -2.063148
 H         0.391922         2.598779        -2.747215
 H         2.635399         1.306053        -3.385941
 H         3.920768         2.057746        -2.487139
 H         4.226799        -1.245957        -0.690376
 H         0.900822        -0.369371        -0.672292
 H         4.205812         0.424289         1.524122
 H         2.029540         2.422449         0.821683
 H         3.497808         2.893062         0.013585
