19
Iteration:  3847
 C         0.917171         2.783968        -1.811119
 C         1.962531         1.985095        -1.263518
 C         3.124147         1.456663        -2.238795
 C         3.138324         0.252059        -1.436504
 O         3.750313        -0.995575        -1.772085
 C         1.811336         0.387579        -0.727489
 C         2.915963         0.749336         0.134706
 O         3.465725        -0.025485         1.130579
 C         2.712634         2.248903         0.017656
 H         0.049869         2.947920        -1.136456
 H         1.409965         3.745730        -2.231305
 H         0.453842         2.350803        -2.727622
 H         2.777434         1.301084        -3.317921
 H         4.016601         2.069595        -2.119654
 H         3.849013        -1.539497        -0.949899
 H         1.016419        -0.304571        -0.632135
 H         4.428941         0.005957         1.265405
 H         2.057918         2.750460         0.695141
 H         3.729049         2.575094        -0.064231
