19
Iteration:  1865
 C         0.900526         2.942085        -1.643100
 C         1.915985         1.867107        -1.272632
 C         3.028589         1.430522        -2.320831
 C         3.157024         0.160499        -1.461092
 O         3.980768        -0.937216        -1.647802
 C         1.684833         0.436710        -0.783986
 C         2.976340         0.725408        -0.010860
 O         3.442526        -0.105054         1.067049
 C         2.792340         2.203181        -0.043538
 H         0.358066         3.432937        -0.800605
 H         1.221638         3.808522        -2.227133
 H         0.027060         2.591169        -2.147887
 H         2.577718         1.325098        -3.311899
 H         3.981590         1.954918        -2.521769
 H         4.440593        -1.000149        -0.799849
 H         0.815140        -0.005399        -0.217511
 H         2.719509         0.014232         1.763118
 H         2.126160         2.477586         0.842776
 H         3.738749         2.809191        -0.248281
