19
Iteration:  4541charge 0 multiplicity 1
 C         0.842076         2.806275        -1.735238
 C         1.967516         1.892222        -1.281039
 C         3.108407         1.530298        -2.316103
 C         3.226693         0.223087        -1.407942
 O         3.916710        -0.967372        -1.679776
 C         1.803116         0.359420        -0.807946
 C         2.988454         0.783582        -0.014155
 O         3.235723        -0.053437         1.154559
 C         2.769156         2.238689         0.058199
 H        -0.080364         3.022366        -1.050689
 H         1.423339         3.714138        -1.949657
 H         0.474319         2.429312        -2.742159
 H         2.515519         1.303939        -3.173425
 H         4.051706         2.187764        -2.512597
 H         4.062235        -1.396948        -0.805839
 H         0.931209        -0.217001        -0.690384
 H         4.239629        -0.133394         1.255071
 H         2.140842         2.419172         0.886208
 H         3.570848         2.927101        -0.146245
