19
Iteration:   788charge 0 multiplicity 1
 C         0.879879         2.901486        -1.779287
 C         1.950309         1.968676        -1.351240
 C         3.117708         1.346597        -2.263678
 C         3.110429         0.178398        -1.403872
 O         3.783508        -0.987364        -1.659478
 C         1.780256         0.355557        -0.864877
 C         2.836472         0.765188         0.177789
 O         3.713237        -0.060568         1.048707
 C         2.596071         2.323547         0.076321
 H         0.085506         3.124539        -0.957996
 H         1.313807         3.992686        -2.030083
 H         0.289211         2.485724        -2.615160
 H         2.782086         1.249729        -3.311440
 H         4.160015         1.697209        -2.507258
 H         4.689264        -0.909146        -1.223855
 H         0.893728        -0.301797        -0.871853
 H         3.351326        -0.225172         1.919079
 H         1.840744         2.648828         0.828490
 H         3.633283         2.854359         0.061836
