19
Iteration:   421charge 0 multiplicity 1
 C         0.811700         2.809133        -1.738459
 C         2.061374         1.962441        -1.273820
 C         3.062944         1.381476        -2.341229
 C         3.206920         0.269579        -1.356291
 O         3.692481        -0.931181        -1.673103
 C         1.765217         0.491983        -0.923916
 C         2.960855         0.697071         0.124335
 O         3.602832        -0.088638         1.124152
 C         2.734459         2.234506         0.064823
 H         0.050575         2.855181        -0.884808
 H         1.044542         3.871110        -1.967604
 H         0.397967         2.194831        -2.590700
 H         2.564605         1.103137        -3.274721
 H         3.929947         1.872760        -2.596164
 H         4.641596        -0.964717        -1.410050
 H         0.919021        -0.223448        -1.335671
 H         3.103664        -0.073778         1.992585
 H         2.020728         2.622051         0.770061
 H         3.603470         2.833272         0.033133
