19
Iteration:   636
 C         0.912761         2.837539        -1.793896
 C         1.970041         1.903640        -1.342966
 C         3.086338         1.428514        -2.310757
 C         3.169053         0.176867        -1.326966
 O         3.798804        -1.004793        -1.688324
 C         1.710203         0.429987        -0.738452
 C         2.918886         0.763497         0.109087
 O         3.618005        -0.032671         0.970221
 C         2.675980         2.241000         0.083069
 H         0.114400         3.145898        -1.074907
 H         1.324603         3.945009        -1.909904
 H         0.360473         2.689139        -2.730333
 H         2.602342         1.186386        -3.244975
 H         3.970377         2.139161        -2.211351
 H         4.671673        -0.997669        -1.205798
 H         0.725874        -0.157312        -0.608754
 H         3.111719        -0.081544         1.774209
 H         1.888280         2.322969         0.859398
 H         3.486901         2.954720         0.299752
