19
Iteration:  4093
 C         0.881399         2.819552        -1.715829
 C         1.974038         1.908209        -1.348588
 C         3.041173         1.500091        -2.355903
 C         3.209144         0.219992        -1.403795
 O         3.876060        -0.994960        -1.518137
 C         1.778536         0.433135        -0.803930
 C         3.023971         0.772878         0.065310
 O         3.404355        -0.031641         1.124198
 C         2.733543         2.249774         0.023131
 H         0.015651         3.135177        -1.052804
 H         1.324731         3.779595        -2.092028
 H         0.471166         2.281046        -2.656441
 H         2.565262         1.203092        -3.281197
 H         4.015316         2.063340        -2.374689
 H         4.027632        -1.251555        -2.437312
 H         0.835377        -0.179052        -0.553264
 H         3.088786        -0.934731         1.034307
 H         2.131560         2.498259         0.869922
 H         3.580315         2.918414        -0.048392
