19
Iteration:  2101
 C         0.839351         2.871231        -1.768428
 C         1.973007         1.945550        -1.307599
 C         3.147071         1.456047        -2.245230
 C         3.124761         0.260658        -1.369479
 O         3.694831        -1.006843        -1.690409
 C         1.779002         0.454518        -0.767950
 C         2.976413         0.742726         0.128470
 O         3.668676        -0.127490         0.998937
 C         2.651849         2.291175        -0.015004
 H        -0.027097         2.926845        -1.113062
 H         1.392551         3.768732        -1.856518
 H         0.474414         2.460680        -2.721411
 H         2.944552         1.205721        -3.250804
 H         4.069396         1.999973        -2.169224
 H         4.230004        -1.269669        -0.866444
 H         0.835139        -0.245216        -0.629756
 H         3.119858        -0.248556         1.770610
 H         1.988291         2.264191         0.813515
 H         3.501339         2.951583        -0.162275
