19
Iteration:  1487
 C         0.834764         2.797934        -1.669504
 C         2.001253         1.942034        -1.322700
 C         3.012731         1.400251        -2.399261
 C         3.094926         0.170542        -1.443680
 O         3.914253        -0.956267        -1.593262
 C         1.817421         0.485640        -0.801341
 C         3.069457         0.741575        -0.008358
 O         3.341758        -0.047267         1.160669
 C         2.798579         2.314456         0.045807
 H         0.300382         2.982339        -0.758039
 H         1.217878         3.799224        -1.924866
 H         0.294882         2.308042        -2.469381
 H         2.469833         1.220464        -3.247661
 H         3.852384         2.003170        -2.667678
 H         3.600091        -1.579091        -2.260456
 H         0.842808         0.047566        -0.369814
 H         4.220934        -0.417662         1.297773
 H         2.146606         2.416135         0.926439
 H         3.648391         2.977320         0.203525
