19
Iteration:  1302charge 0 multiplicity 1
 C         0.820494         2.820881        -1.786179
 C         1.934427         1.909978        -1.354870
 C         3.035027         1.482227        -2.286351
 C         3.220259         0.284653        -1.402907
 O         3.650299        -1.048160        -1.689205
 C         1.849116         0.374667        -0.851536
 C         3.051438         0.742006         0.169366
 O         3.504573         0.048055         1.244007
 C         2.773395         2.249885         0.051477
 H         0.052210         2.938083        -1.047867
 H         1.185292         3.864261        -1.928910
 H         0.423342         2.492847        -2.733753
 H         2.615694         1.070735        -3.273496
 H         3.794402         2.165041        -2.711004
 H         4.579509        -1.194287        -1.648357
 H         1.273917        -0.540795        -0.963224
 H         3.801304        -0.815824         0.967031
 H         2.227218         2.692188         0.901687
 H         3.591045         2.889452        -0.277036
