19
Iteration:  3806
 C         0.771161         2.840367        -1.736263
 C         2.093795         1.965658        -1.332372
 C         3.074209         1.442733        -2.387599
 C         3.196117         0.220283        -1.394860
 O         3.828905        -0.974305        -1.699682
 C         1.826864         0.458706        -0.752120
 C         2.973365         0.714684         0.104057
 O         3.323114        -0.069895         1.144730
 C         2.830181         2.203326         0.049954
 H         0.136092         3.116639        -0.808578
 H         1.060110         3.707367        -2.408575
 H         0.118115         2.323174        -2.501371
 H         2.528405         1.322846        -3.341982
 H         4.081346         1.878379        -2.521808
 H         3.798336        -1.390270        -0.839149
 H         1.083522        -0.264932        -0.546791
 H         4.272436         0.134667         1.278248
 H         1.946154         2.538763         0.643021
 H         3.593096         3.115932        -0.066360
