19
Iteration:  4820charge 0 multiplicity 1
 C         0.919862         2.823869        -1.794697
 C         1.887933         1.973053        -1.209288
 C         3.086451         1.466139        -2.339172
 C         3.195470         0.225156        -1.391288
 O         3.831058        -1.003768        -1.601788
 C         1.746637         0.403430        -0.863100
 C         2.985747         0.713858         0.088858
 O         3.522125        -0.008885         1.139426
 C         2.702996         2.154046         0.028283
 H        -0.047927         3.073168        -1.283196
 H         1.413873         3.889273        -1.903029
 H         0.646630         2.482734        -2.815606
 H         2.434019         1.289720        -3.289709
 H         4.062976         2.083841        -2.410172
 H         4.048196        -0.956807        -2.517647
 H         0.955727        -0.377105        -0.784731
 H         3.182614         0.329805         1.960272
 H         1.977649         2.458974         0.817361
 H         3.617686         2.735434         0.015198
