19
Iteration:    19
 C         0.899978         2.821187        -1.613875
 C         2.009482         1.966646        -1.220431
 C         3.023994         1.530748        -2.405534
 C         3.196549         0.201218        -1.569155
 O         3.824347        -1.182586        -1.549800
 C         1.837524         0.328088        -0.880456
 C         2.917612         0.782305         0.044053
 O         3.418130         0.111001         1.126545
 C         2.739164         2.241107         0.094657
 H         0.153409         3.047387        -0.771499
 H         1.256011         3.788161        -2.061370
 H         0.284352         2.411886        -2.479025
 H         2.354477         1.470139        -3.281538
 H         3.917680         2.163258        -2.780952
 H         4.728737        -0.949827        -1.731658
 H         0.939501        -0.204130        -0.908372
 H         3.426749        -0.820148         0.948905
 H         2.200900         2.784301         1.018611
 H         3.604733         2.921846         0.053023
