19
Iteration:   886
 C         0.873918         2.795017        -1.767203
 C         1.942314         1.913029        -1.290380
 C         3.016943         1.322617        -2.360840
 C         3.091460         0.192162        -1.340838
 O         3.935020        -0.831918        -1.763647
 C         1.717750         0.458299        -0.787366
 C         2.960251         0.737873         0.129302
 O         3.487290        -0.069280         1.159662
 C         2.833167         2.255911         0.001092
 H         0.193058         3.118107        -0.961920
 H         1.365771         3.818234        -1.944800
 H         0.341436         2.421457        -2.611198
 H         2.626129         1.056964        -3.420316
 H         4.028469         1.852093        -2.298353
 H         3.834687        -1.664725        -1.188422
 H         0.857211        -0.118091        -0.815422
 H         3.059842         0.199448         1.990671
 H         2.111495         2.684897         0.761098
 H         3.840063         2.880083        -0.239236
