19
Iteration:  3630
 C         0.815421         2.876554        -1.745425
 C         1.962618         1.900970        -1.334815
 C         2.978390         1.463938        -2.301211
 C         3.236663         0.226880        -1.359937
 O         3.905071        -0.987033        -1.706339
 C         1.829262         0.438223        -0.745743
 C         2.982501         0.744425         0.043461
 O         3.349412        -0.158994         1.151007
 C         2.811455         2.315755        -0.011695
 H         0.246856         3.345003        -0.924352
 H         1.131835         3.846991        -2.134414
 H         0.147244         2.412899        -2.478618
 H         2.818405         0.933100        -3.269632
 H         3.928063         1.951458        -2.612558
 H         3.498406        -1.657792        -1.064368
 H         0.816132         0.067268        -0.586681
 H         4.267074        -0.036782         1.540896
 H         2.129275         2.913470         0.564864
 H         3.787952         2.881571        -0.069017
