19
Iteration:  2393charge 0 multiplicity 1
 C         0.856538         2.863232        -1.715962
 C         1.972163         1.944862        -1.291940
 C         3.115397         1.391461        -2.185358
 C         3.136544         0.202243        -1.339383
 O         3.732795        -0.944551        -1.633968
 C         1.755191         0.454674        -0.862568
 C         3.053786         0.735265         0.039357
 O         3.548075        -0.123626         0.959917
 C         2.706126         2.256179        -0.020393
 H         0.412319         3.432772        -0.865585
 H         1.329175         3.686692        -2.473050
 H         0.166910         2.346597        -2.345650
 H         2.630652         1.188064        -3.192868
 H         3.959724         1.983726        -2.378869
 H         4.353997        -1.220613        -0.966500
 H         0.948570        -0.166927        -0.567298
 H         3.187993        -0.068376         1.832396
 H         2.077577         2.559417         0.876097
 H         3.530509         3.096075        -0.010853
