19
Iteration:  3646
 C         0.814708         2.812914        -1.752042
 C         2.005411         1.974532        -1.299246
 C         3.103868         1.390529        -2.360695
 C         3.176767         0.239386        -1.383639
 O         3.837943        -0.967515        -1.739977
 C         1.830792         0.509139        -0.794626
 C         3.026499         0.758528         0.184357
 O         3.322002        -0.160902         1.195474
 C         2.785127         2.322563        -0.058488
 H         0.245874         3.048585        -0.826306
 H         1.063162         3.698936        -2.405446
 H         0.171057         2.207642        -2.427614
 H         2.430347         1.295761        -3.194878
 H         3.930801         2.122922        -2.507092
 H         3.726288        -1.695767        -1.094293
 H         1.084148        -0.250029        -0.608195
 H         4.320364        -0.122950         1.266287
 H         2.165703         2.587083         0.878764
 H         3.622424         2.998734        -0.179597
