19
Iteration:  1007charge 0 multiplicity 1
 C         0.786796         2.739756        -1.790128
 C         2.007673         1.936346        -1.306569
 C         3.071217         1.452002        -2.343505
 C         3.223619         0.242919        -1.369500
 O         3.775601        -1.027354        -1.817580
 C         1.835194         0.439215        -0.737315
 C         3.027099         0.774181         0.151624
 O         3.461811         0.030966         1.185741
 C         2.769440         2.251401         0.031640
 H         0.001860         2.880419        -1.024661
 H         1.232227         3.789748        -1.923075
 H         0.417493         2.439223        -2.746610
 H         2.439241         1.071211        -3.212242
 H         3.968301         2.168729        -2.426758
 H         4.176432        -1.412645        -1.058948
 H         0.963467        -0.190990        -0.665582
 H         2.727799        -0.505271         1.447156
 H         2.219925         2.722063         0.846141
 H         3.647512         2.879533        -0.146517
