19
Iteration:   880charge 0 multiplicity 1
 C         0.886124         2.795057        -1.747938
 C         1.971430         1.887814        -1.364345
 C         3.044240         1.313456        -2.337672
 C         3.049068         0.275374        -1.300760
 O         3.915135        -0.820571        -1.779432
 C         1.752427         0.456521        -0.733634
 C         2.962159         0.740288         0.114929
 O         3.485474        -0.087574         1.151737
 C         2.833334         2.272674        -0.015118
 H         0.102609         2.921559        -0.958343
 H         1.189329         3.798812        -2.047072
 H         0.231450         2.471006        -2.615041
 H         2.762623         0.883577        -3.250475
 H         4.046160         1.674780        -2.514019
 H         3.902852        -1.635344        -1.319459
 H         0.763129        -0.134431        -0.753587
 H         2.904045         0.173091         1.932324
 H         2.166573         2.678942         0.715770
 H         3.783425         2.736981         0.080680
