19
Iteration:  1493
 C         0.843378         2.810287        -1.642674
 C         1.974255         1.971391        -1.325503
 C         3.019738         1.416554        -2.353537
 C         3.109819         0.165632        -1.436949
 O         3.957209        -0.961916        -1.600491
 C         1.802374         0.442329        -0.741999
 C         3.049944         0.760004        -0.015038
 O         3.292613        -0.038843         1.127303
 C         2.846552         2.280960         0.015594
 H         0.175125         2.994928        -0.745360
 H         1.230994         3.781759        -2.023652
 H         0.198182         2.354066        -2.420448
 H         2.588121         1.167973        -3.454169
 H         3.824859         2.167393        -2.652406
 H         3.383358        -1.609805        -2.122110
 H         0.985706        -0.139219        -0.336640
 H         4.256162        -0.326205         1.198414
 H         2.026682         2.511120         0.730454
 H         3.821510         2.874298         0.021259
