19
Iteration:   322charge 0 multiplicity 1
 C         0.894045         2.851103        -1.759467
 C         1.941840         1.915896        -1.248519
 C         2.981119         1.427085        -2.304725
 C         3.112028         0.199869        -1.409555
 O         3.870915        -0.893584        -1.675471
 C         1.709903         0.420276        -0.792591
 C         3.056237         0.724815         0.032121
 O         3.550835        -0.094435         1.052355
 C         2.765813         2.229029         0.034714
 H         0.059015         3.066551        -1.005631
 H         1.446251         3.813251        -1.983109
 H         0.492187         2.419901        -2.701058
 H         2.527847         1.164502        -3.324258
 H         3.955612         2.018757        -2.410040
 H         4.107039        -1.340583        -0.809657
 H         0.870759        -0.040589        -0.543816
 H         2.930141        -0.022212         1.846155
 H         2.065197         2.411264         0.845616
 H         3.512967         3.025629         0.040362
