19
Iteration:  1796charge 0 multiplicity 1
 C         0.867542         2.865521        -1.727695
 C         1.938896         1.988401        -1.269753
 C         3.158610         1.458593        -2.156265
 C         3.140585         0.172294        -1.432673
 O         3.757124        -1.043250        -1.671777
 C         1.745178         0.401769        -0.791981
 C         3.006589         0.716504         0.016145
 O         3.564085        -0.040006         0.971342
 C         2.708370         2.288453         0.014706
 H        -0.097889         2.873078        -1.148737
 H         1.291924         3.893922        -1.765138
 H         0.428046         2.654292        -2.747786
 H         2.848442         1.297184        -3.201293
 H         4.171519         1.993070        -2.326258
 H         4.112748        -1.302935        -0.763962
 H         0.955803        -0.258268        -0.508118
 H         2.955043        -0.078909         1.761189
 H         2.075700         2.548218         0.908602
 H         3.572972         2.937354        -0.224230
