19
Iteration:  1019charge 0 multiplicity 1
 C         0.836904         2.810198        -1.712548
 C         1.952852         1.906243        -1.294320
 C         3.072060         1.276560        -2.305052
 C         3.274058         0.223939        -1.350758
 O         3.788113        -0.912194        -1.822734
 C         1.828538         0.441219        -0.818364
 C         2.955535         0.769298         0.065389
 O         3.471408         0.001208         1.209119
 C         2.782609         2.348816         0.040229
 H         0.015173         2.804247        -0.971086
 H         1.087963         3.868876        -2.073938
 H         0.342165         2.283478        -2.532748
 H         2.639008         1.069479        -3.346854
 H         4.019590         1.835820        -2.796975
 H         4.072420        -1.582065        -1.108461
 H         1.010767        -0.363525        -0.704698
 H         2.695642        -0.368761         1.720659
 H         2.099217         2.613127         0.854428
 H         3.681608         3.035280        -0.101631
