19
Iteration:  2225charge 0 multiplicity 1
 C         0.840738         2.808985        -1.754826
 C         1.996968         1.982631        -1.200002
 C         3.102028         1.497482        -2.294456
 C         3.069421         0.226188        -1.479127
 O         3.795893        -1.038055        -1.659337
 C         1.755883         0.449202        -0.811910
 C         2.994902         0.700221        -0.006161
 O         3.537124        -0.021618         1.048462
 C         2.767260         2.257394         0.087861
 H         0.326820         3.177793        -0.855953
 H         1.216019         3.572224        -2.435740
 H         0.413735         2.276976        -2.602819
 H         2.647668         1.500552        -3.264249
 H         4.110348         1.832399        -2.427409
 H         4.048106        -1.253781        -0.720004
 H         0.907853        -0.113866        -0.607283
 H         2.915531        -0.317521         1.712203
 H         2.249900         2.346256         1.032171
 H         3.750499         2.797377         0.055654
