19
Iteration:  3395charge 0 multiplicity 1
 C         0.805313         2.834378        -1.909372
 C         2.004785         1.983066        -1.216178
 C         3.135296         1.536089        -2.291934
 C         3.132359         0.191549        -1.412233
 O         3.828993        -1.035366        -1.717069
 C         1.738684         0.432780        -0.791508
 C         2.947706         0.749012         0.068271
 O         3.453060        -0.042824         1.181769
 C         2.816282         2.187026         0.071118
 H         0.183817         2.838463        -0.946314
 H         1.017697         3.882796        -1.987484
 H         0.385506         2.409082        -2.828264
 H         2.655094         1.385826        -3.313965
 H         3.989456         2.187608        -2.388713
 H         3.764199        -1.533625        -0.880092
 H         0.830825        -0.047397        -0.521875
 H         4.321894        -0.250309         0.838551
 H         2.088934         2.233669         0.880189
 H         3.523788         3.103968         0.111558
