19
Iteration:   434charge 0 multiplicity 1
 C         0.895396         2.771164        -1.767699
 C         1.932569         1.945167        -1.320920
 C         3.097985         1.472407        -2.226015
 C         3.102345         0.280668        -1.307119
 O         3.711711        -0.930229        -1.736482
 C         1.709467         0.428664        -0.867326
 C         3.030807         0.703569         0.114858
 O         3.608704        -0.097109         1.116582
 C         2.782542         2.222218         0.028267
 H        -0.013203         2.776902        -1.051022
 H         1.220758         3.797348        -2.099293
 H         0.396888         2.437868        -2.788424
 H         2.572961         1.024596        -3.114463
 H         3.962871         2.149151        -2.491106
 H         4.480946        -1.065390        -1.160824
 H         0.821035        -0.333178        -1.378097
 H         3.281703         0.288419         1.921008
 H         2.107404         2.503239         0.781663
 H         3.670206         2.896904         0.067852
