19
Iteration:   232
 C         0.830425         2.862607        -1.775740
 C         1.875252         1.914023        -1.320165
 C         3.026418         1.481391        -2.244622
 C         3.170587         0.200991        -1.393087
 O         3.831214        -1.016241        -1.705524
 C         1.770204         0.455323        -0.768441
 C         3.071847         0.713357         0.075877
 O         3.547034        -0.084795         1.130534
 C         2.758124         2.320738        -0.047912
 H         0.173014         2.992865        -0.879011
 H         1.342338         3.903365        -1.832159
 H         0.220507         2.678790        -2.698713
 H         2.644361         1.367430        -3.319364
 H         4.030229         1.986348        -2.286853
 H         4.316642        -1.329584        -0.885309
 H         0.845094        -0.375118        -0.608388
 H         2.835510        -0.706200         1.369614
 H         2.188989         2.690397         0.863070
 H         3.561900         2.952960        -0.221611
