19
Iteration:   132
 C         0.856638         2.860763        -1.690216
 C         1.927663         1.921396        -1.308255
 C         3.082597         1.463962        -2.273919
 C         3.255098         0.251112        -1.327845
 O         3.766394        -1.018365        -1.615405
 C         1.766373         0.453056        -0.813701
 C         2.876044         0.722980         0.129615
 O         3.648692        -0.131619         0.962994
 C         2.631450         2.301344        -0.076031
 H         0.204006         3.181571        -0.848414
 H         1.479319         3.744810        -2.092809
 H         0.257440         2.533289        -2.580139
 H         2.689047         1.168570        -3.279739
 H         3.941091         2.207855        -2.332530
 H         4.626154        -1.234818        -1.097860
 H         0.890207        -0.385181        -0.741937
 H         3.298114        -0.156856         1.846622
 H         2.017287         2.716586         0.734321
 H         3.446123         2.850414        -0.232597
