19
Iteration:  1658charge 0 multiplicity 1
 C         0.778359         2.944076        -1.641441
 C         1.906560         1.830234        -1.344390
 C         3.085082         1.418853        -2.299563
 C         3.196787         0.244337        -1.358636
 O         3.800021        -0.964576        -1.663034
 C         1.844235         0.416278        -0.838202
 C         3.048195         0.758079         0.044175
 O         3.442532        -0.053338         1.146030
 C         2.829163         2.258307        -0.094003
 H         0.287743         3.091412        -0.684277
 H         1.415432         3.777161        -1.905073
 H        -0.007468         2.743814        -2.316688
 H         2.506263         1.152989        -3.254268
 H         3.948982         2.056875        -2.530630
 H         4.210959        -1.380521        -0.919710
 H         0.990388        -0.210790        -0.669093
 H         2.912333        -0.833354         1.179797
 H         2.220597         2.482828         0.740129
 H         3.616552         2.894057        -0.368535
