19
Iteration:  1698charge 0 multiplicity 1
 C         0.871320         2.853411        -1.711920
 C         1.982132         1.999278        -1.259318
 C         2.971896         1.352778        -2.372440
 C         3.077498         0.175190        -1.446505
 O         3.889171        -0.896483        -1.722882
 C         1.734036         0.449815        -0.856961
 C         3.012125         0.657900         0.074791
 O         3.471677         0.006712         1.209216
 C         2.887247         2.150766         0.049997
 H         0.211415         3.330184        -0.913818
 H         1.352436         3.796960        -2.111034
 H         0.158583         2.397290        -2.508991
 H         2.473572         1.023683        -3.287727
 H         3.749260         2.004398        -2.797225
 H         4.655830        -0.738628        -1.086858
 H         0.703089        -0.018619        -0.563802
 H         2.646528        -0.554705         1.376492
 H         2.173201         2.524511         0.903364
 H         3.912899         2.728242         0.092636
