19
Iteration:   760
 C         0.945946         2.826347        -1.843564
 C         1.841960         1.869806        -1.266918
 C         2.968916         1.486067        -2.200266
 C         3.186528         0.218176        -1.406677
 O         3.796208        -0.959604        -1.671616
 C         1.728237         0.441702        -0.789331
 C         3.053740         0.702475        -0.033523
 O         3.554078        -0.000794         1.103387
 C         2.770710         2.156778         0.037874
 H         0.106686         3.087993        -1.235431
 H         1.429298         3.727793        -2.048964
 H         0.459952         2.627399        -2.792953
 H         2.565670         1.394951        -3.212157
 H         3.895509         2.063644        -2.316951
 H         4.464934        -1.207944        -0.928409
 H         0.922525        -0.190624        -0.688056
 H         3.074279         0.308170         1.854465
 H         2.201886         2.205915         1.014924
 H         3.562929         2.855788         0.084901
