19
Iteration:  4368
 C         0.845131         2.880469        -1.840724
 C         1.961105         1.914583        -1.313510
 C         3.015205         1.525875        -2.282579
 C         3.262394         0.265754        -1.381589
 O         3.912098        -0.926314        -1.612523
 C         1.792181         0.337498        -0.849615
 C         2.962152         0.639277         0.060476
 O         3.370120        -0.076207         1.206795
 C         2.780004         2.185922         0.049135
 H         0.043735         3.029813        -1.099364
 H         1.170091         3.921665        -1.878558
 H         0.522728         2.614399        -2.869570
 H         2.690850         1.221288        -3.397469
 H         4.014007         1.982544        -2.396850
 H         3.562708        -1.586677        -2.227957
 H         0.909862        -0.398237        -0.781239
 H         3.806715         0.557211         1.797925
 H         2.049068         2.579066         0.830477
 H         3.539042         3.048356        -0.158132
