19
Iteration:   268
 C         0.885017         2.795822        -1.739480
 C         2.073562         1.943337        -1.340037
 C         3.046564         1.478288        -2.357236
 C         3.145896         0.267838        -1.394888
 O         3.756297        -0.938422        -1.570349
 C         1.658958         0.510819        -0.859778
 C         2.921813         0.645073         0.035868
 O         3.645336        -0.020215         1.024327
 C         2.714108         2.104520         0.120894
 H         0.296864         2.896939        -0.780056
 H         1.176934         3.808672        -2.074970
 H         0.197111         2.392510        -2.492735
 H         2.451818         1.163270        -3.282812
 H         4.069671         1.999194        -2.533384
 H         4.497776        -0.994657        -0.887295
 H         0.885320        -0.077316        -0.965464
 H         3.272839         0.053753         1.941057
 H         1.893019         2.387029         0.712265
 H         3.724505         2.687316         0.126591
