19
Iteration:  1334charge 0 multiplicity 1
 C         0.817146         2.754928        -1.569065
 C         2.054644         1.977414        -1.359113
 C         3.070758         1.364496        -2.273854
 C         3.081756         0.116114        -1.456147
 O         3.858228        -1.030497        -1.732739
 C         1.742900         0.505920        -0.854195
 C         2.997207         0.748348         0.063714
 O         3.380109         0.149722         1.221416
 C         2.852022         2.224801        -0.005216
 H         0.184888         2.747720        -0.687364
 H         1.092771         3.747740        -1.981394
 H         0.285726         2.227662        -2.339369
 H         2.472429         1.005490        -3.215243
 H         4.052866         1.955372        -2.495866
 H         4.807045        -0.703153        -1.834687
 H         0.768638         0.002830        -0.854577
 H         3.567587        -0.795207         1.010264
 H         2.145985         2.610328         0.764666
 H         3.648111         2.921594        -0.116622
