19
Iteration:  3354
 C         0.843399         2.794807        -1.780120
 C         1.991540         1.937369        -1.365479
 C         3.146558         1.464974        -2.270545
 C         3.231587         0.289219        -1.316295
 O         3.739007        -0.922566        -1.717760
 C         1.825515         0.385199        -0.747501
 C         2.985350         0.667045         0.075431
 O         3.394323        -0.123919         1.079434
 C         2.747977         2.315950         0.030090
 H         0.223664         3.065276        -0.940371
 H         1.170141         3.813258        -2.162949
 H         0.100859         2.419618        -2.520482
 H         2.780144         0.967431        -3.255279
 H         4.011037         2.135455        -2.549466
 H         3.666195        -1.633518        -1.013346
 H         0.822657        -0.097364        -0.685201
 H         4.257044         0.114643         1.522222
 H         2.184343         2.615758         0.957664
 H         3.623924         3.013328        -0.033848
