19
Iteration:  4667
 C         0.881696         2.881682        -1.813496
 C         1.907961         1.935422        -1.256283
 C         3.062213         1.514279        -2.276788
 C         3.206159         0.224516        -1.303451
 O         3.813171        -1.034999        -1.629884
 C         1.783881         0.362167        -0.896722
 C         2.909668         0.744037         0.084480
 O         3.535239        -0.016608         1.061137
 C         2.713892         2.179844         0.095336
 H        -0.081028         2.924899        -1.308568
 H         1.447909         3.876172        -1.933040
 H         0.696553         2.592237        -2.866823
 H         2.613014         1.232885        -3.289448
 H         3.993967         1.967718        -2.524834
 H         4.789851        -1.005196        -1.718547
 H         0.841496        -0.133401        -1.109868
 H         3.017039        -0.239016         1.864924
 H         2.126789         2.692213         0.880402
 H         3.632116         2.737030         0.131005
