19
Iteration:  4418
 C         0.827085         2.796175        -1.663347
 C         2.039655         1.875673        -1.427502
 C         3.181341         1.398952        -2.358809
 C         3.200125         0.262757        -1.355966
 O         3.977289        -0.838875        -1.549451
 C         1.721132         0.473719        -0.831107
 C         2.915166         0.752910         0.065389
 O         3.352918        -0.061966         1.189712
 C         2.684027         2.204623        -0.019481
 H         0.216962         3.105776        -0.789907
 H         1.155799         3.800802        -2.003858
 H         0.347394         2.345009        -2.516234
 H         2.726334         1.179823        -3.259930
 H         4.042871         2.062521        -2.529640
 H         3.492177        -1.457482        -2.086407
 H         0.885665        -0.192017        -0.846346
 H         3.629029        -0.852107         0.673054
 H         2.021187         2.468899         0.782740
 H         3.621155         2.710325         0.052066
