19
Iteration:  3157
 C         0.847636         2.963264        -1.715433
 C         1.944615         1.948463        -1.263075
 C         3.030649         1.327912        -2.383483
 C         3.148958         0.216372        -1.395974
 O         3.929808        -0.946631        -1.704298
 C         1.698730         0.450833        -0.855344
 C         2.915276         0.692124         0.051325
 O         3.515279        -0.097031         1.126933
 C         2.843865         2.219454         0.065199
 H         0.173905         3.172528        -0.849421
 H         1.290314         3.965570        -2.021809
 H         0.282411         2.633615        -2.617946
 H         2.484255         0.872728        -3.215219
 H         3.955017         1.857857        -2.534802
 H         4.405508        -1.190322        -0.880721
 H         0.674093         0.007313        -0.906156
 H         2.860032         0.128542         1.837621
 H         2.021480         2.595870         0.809937
 H         3.822019         2.756017         0.187925
