19
Iteration:  2329charge 0 multiplicity 1
 C         0.872325         2.909365        -1.706343
 C         1.981573         1.841647        -1.345901
 C         3.086532         1.377348        -2.313997
 C         3.132616         0.220230        -1.335807
 O         3.825389        -0.928549        -1.795240
 C         1.789892         0.456474        -0.685396
 C         2.920232         0.784628         0.135829
 O         3.457518        -0.085743         1.086352
 C         2.832644         2.241896        -0.077204
 H         0.098945         2.943829        -0.949426
 H         1.366915         3.887930        -1.634090
 H         0.253915         2.683121        -2.526195
 H         2.636154         0.926027        -3.216133
 H         3.922948         2.059367        -2.366255
 H         4.244411        -1.319086        -1.024718
 H         1.054580        -0.271689        -0.641923
 H         2.840590        -0.301509         1.782117
 H         2.222347         2.706848         0.623008
 H         3.685155         2.861788        -0.150730
