19
Iteration:  1758
 C         0.821435         2.826889        -1.810734
 C         2.045944         2.000843        -1.292335
 C         3.157183         1.509762        -2.318847
 C         3.144898         0.296149        -1.348958
 O         3.604767        -0.988738        -1.613889
 C         1.765210         0.480398        -0.875129
 C         2.949033         0.640981         0.074924
 O         3.704745        -0.071835         1.090653
 C         2.675667         2.131276         0.049049
 H         0.196251         2.713133        -0.940915
 H         1.214975         3.834355        -1.954179
 H         0.419083         2.490427        -2.735993
 H         2.582991         1.090690        -3.158870
 H         3.982978         2.148977        -2.475606
 H         4.396454        -1.184979        -1.083095
 H         1.023725        -0.245289        -1.262981
 H         3.316692         0.209245         1.964413
 H         1.944921         2.402729         0.772508
 H         3.498172         2.800047         0.125758
