19
Iteration:  2357
 C         0.833050         2.857367        -1.714897
 C         2.015364         1.953217        -1.245892
 C         3.022635         1.449440        -2.329792
 C         3.107331         0.207318        -1.427902
 O         3.869931        -0.953867        -1.636150
 C         1.766326         0.494430        -0.902278
 C         2.969651         0.696807         0.065682
 O         3.509129        -0.076171         1.119787
 C         2.889145         2.200992         0.005567
 H         0.101754         3.128993        -0.900332
 H         1.126953         3.828248        -2.199830
 H         0.122900         2.248670        -2.334040
 H         2.384279         1.098188        -3.166183
 H         3.898375         2.081457        -2.578465
 H         3.551773        -1.490987        -0.921054
 H         0.831227        -0.090333        -0.991562
 H         2.877063        -0.075875         1.823473
 H         2.197231         2.504699         0.895509
 H         3.854851         2.860075        -0.158081
