19
Iteration:  3441
 C         0.908480         2.936998        -1.706795
 C         1.967532         1.925523        -1.334613
 C         3.006386         1.363537        -2.380624
 C         3.173807         0.173373        -1.415620
 O         3.953088        -0.912080        -1.661615
 C         1.707701         0.480425        -0.798158
 C         2.917089         0.705576         0.065768
 O         3.433114        -0.074134         1.137049
 C         2.692232         2.221582         0.039727
 H         0.259517         3.035883        -0.886494
 H         1.490844         3.875237        -1.832312
 H         0.669889         2.561643        -2.682000
 H         2.464726         1.093339        -3.364463
 H         3.937613         1.910077        -2.617831
 H         3.660765        -1.613422        -1.000637
 H         1.079364        -0.411276        -0.401535
 H         4.370270         0.096989         1.358721
 H         1.954620         2.677255         0.765432
 H         3.689395         2.798037         0.032004
