19
Iteration:  2841
 C         0.866357         2.897229        -1.609659
 C         2.007441         1.909232        -1.323142
 C         3.054291         1.334026        -2.344259
 C         3.192799         0.242468        -1.343851
 O         3.740223        -1.064843        -1.740424
 C         1.788943         0.506046        -0.835234
 C         3.001838         0.770943         0.101104
 O         3.456662        -0.032646         1.201283
 C         2.788453         2.275788        -0.063813
 H         0.142155         2.951607        -0.777756
 H         1.217830         3.984487        -1.854032
 H         0.301721         2.429956        -2.418273
 H         2.565219         1.163940        -3.318169
 H         3.850363         2.022022        -2.597592
 H         4.726252        -0.997218        -1.663721
 H         0.906270        -0.210570        -0.707889
 H         2.950761        -0.828165         1.051930
 H         2.180135         2.869879         0.648253
 H         3.846095         2.870344        -0.088691
