19
Iteration:  3522
 C         0.804377         2.834498        -1.796787
 C         2.046420         1.985559        -1.240988
 C         3.115550         1.447788        -2.276418
 C         3.153021         0.203254        -1.426076
 O         3.775667        -0.999532        -1.688511
 C         1.751516         0.492995        -0.824342
 C         2.989985         0.734790         0.057422
 O         3.431272        -0.060870         1.076263
 C         2.822193         2.183101         0.080256
 H        -0.105785         2.890097        -1.124591
 H         0.994146         3.783951        -2.307454
 H         0.324639         2.103484        -2.549696
 H         2.610392         1.228740        -3.264771
 H         4.110102         2.031493        -2.489682
 H         4.196264        -1.493549        -0.925041
 H         0.784608         0.090241        -0.673587
 H         3.959490         0.490601         1.711601
 H         2.217599         2.269909         1.122237
 H         3.639006         2.913046         0.031756
