19
Iteration:  2371
 C         0.789325         2.829435        -1.713936
 C         1.995379         2.033558        -1.321771
 C         3.027168         1.505081        -2.387840
 C         3.148728         0.189953        -1.462208
 O         3.866355        -1.051854        -1.611443
 C         1.756141         0.482233        -0.764114
 C         2.997072         0.719626         0.003864
 O         3.505775        -0.087615         1.052214
 C         2.804462         2.186964         0.098060
 H         0.333053         3.381186        -0.858342
 H         1.342813         3.689746        -2.340971
 H         0.117062         2.270359        -2.372806
 H         2.627590         1.520496        -3.462339
 H         3.929400         2.044226        -2.391852
 H         3.885854        -1.611140        -0.768067
 H         0.863463        -0.045134        -0.677078
 H         2.981779         0.118851         1.885840
 H         2.210563         2.620152         0.886606
 H         3.780389         2.801419         0.230184
