19
Iteration:  4660
 C         0.946846         2.905989        -1.778245
 C         1.955070         1.933035        -1.318585
 C         3.062626         1.437436        -2.265779
 C         3.227380         0.266742        -1.360570
 O         3.776333        -0.975678        -1.605736
 C         1.786515         0.386852        -0.878319
 C         2.875789         0.672283         0.134494
 O         3.560479        -0.001899         1.025861
 C         2.626492         2.208243         0.071724
 H        -0.039304         2.853882        -1.281818
 H         1.446433         3.833473        -1.937900
 H         0.735607         2.460259        -2.745380
 H         2.489240         1.097704        -3.086441
 H         4.038916         1.973889        -2.433543
 H         4.714642        -0.887515        -1.581687
 H         0.961385        -0.274749        -0.918750
 H         3.107393        -0.465635         1.707802
 H         1.955836         2.550373         0.921213
 H         3.669962         2.702518        -0.003755
