19
Iteration:   519charge 0 multiplicity 1
 C         0.836396         2.892552        -1.708571
 C         1.916086         1.966467        -1.308975
 C         2.971975         1.401591        -2.313693
 C         3.161460         0.223465        -1.409310
 O         3.915414        -0.947381        -1.581926
 C         1.758602         0.396699        -0.851154
 C         2.923451         0.771707         0.053490
 O         3.529434        -0.127507         1.069473
 C         2.850324         2.231452        -0.037139
 H         0.281500         3.087261        -0.758832
 H         1.187031         3.870854        -1.974372
 H         0.143729         2.479431        -2.451967
 H         2.434585         1.378629        -3.300129
 H         3.855609         2.076206        -2.496976
 H         4.377086        -0.905839        -0.681203
 H         0.833982        -0.398856        -0.906715
 H         2.845255        -0.458936         1.694307
 H         2.327324         2.722987         0.852843
 H         3.822978         2.663029        -0.261707
