19
Iteration:  3286charge 0 multiplicity 1
 C         0.904971         2.986409        -1.709479
 C         1.959290         1.938483        -1.336829
 C         3.024743         1.334438        -2.342021
 C         3.189582         0.208888        -1.436179
 O         3.915188        -0.905089        -1.662453
 C         1.725804         0.412934        -0.795695
 C         2.976962         0.729234         0.075613
 O         3.438313        -0.191893         1.165681
 C         2.704451         2.271501        -0.002657
 H         0.061033         3.098955        -0.957778
 H         1.531118         3.845546        -1.834961
 H         0.279222         2.695374        -2.548978
 H         2.395410         0.976272        -3.286273
 H         3.858047         1.933285        -2.788472
 H         4.048785        -1.372258        -0.851827
 H         0.797414        -0.081410        -0.797087
 H         4.198331         0.135467         1.674075
 H         2.024766         2.711068         0.704391
 H         3.560477         2.947536        -0.181640
