19
Iteration:   270
 C         0.875470         2.809922        -1.738737
 C         2.053891         1.938263        -1.346824
 C         3.056258         1.466360        -2.342798
 C         3.138414         0.255488        -1.402902
 O         3.757561        -0.937827        -1.567480
 C         1.667734         0.526018        -0.881376
 C         2.929816         0.652436         0.055665
 O         3.659563        -0.046985         1.026540
 C         2.707592         2.120379         0.119384
 H         0.320056         2.896357        -0.795805
 H         1.187323         3.767865        -2.077290
 H         0.195487         2.403048        -2.485145
 H         2.463477         1.160886        -3.213830
 H         4.034995         2.038811        -2.467166
 H         4.448129        -0.969197        -0.912394
 H         0.907846        -0.119554        -0.996576
 H         3.269495         0.126834         1.954520
 H         1.855773         2.415809         0.691937
 H         3.736914         2.735220         0.019214
