19
Iteration:   676charge 0 multiplicity 1
 C         0.798985         2.879331        -1.730667
 C         1.898255         1.905574        -1.342620
 C         2.964572         1.582966        -2.350776
 C         3.215262         0.247779        -1.423753
 O         3.868969        -1.029945        -1.517187
 C         1.756631         0.453793        -0.869680
 C         2.957055         0.691375         0.061409
 O         3.516590        -0.076563         1.055270
 C         2.870249         2.180658         0.009558
 H         0.200640         3.054312        -0.828628
 H         1.288839         3.850334        -1.912102
 H         0.220398         2.361571        -2.513144
 H         2.592851         1.140078        -3.321316
 H         3.841794         2.210851        -2.421744
 H         4.455580        -1.293017        -0.804716
 H         0.948354        -0.184129        -0.882781
 H         2.960856        -0.132294         1.889903
 H         2.212043         2.590826         0.749313
 H         3.819842         2.732488        -0.193569
