19
Iteration:    52charge 0 multiplicity 1
 C         0.782580         2.877199        -1.646986
 C         1.952089         1.918011        -1.339003
 C         3.209381         1.377903        -2.348156
 C         3.183412         0.304280        -1.346591
 O         3.729942        -0.945621        -1.735952
 C         1.756425         0.399587        -0.812784
 C         3.036262         0.657618         0.110179
 O         3.460309         0.039030         1.229677
 C         2.763848         2.236496        -0.098193
 H         0.176750         2.988614        -0.660343
 H         1.170376         3.904621        -1.841119
 H         0.135212         2.374279        -2.427529
 H         2.675633         0.866712        -3.142577
 H         4.138425         2.001582        -2.632741
 H         4.667784        -1.026813        -1.326099
 H         1.015408        -0.281562        -0.900579
 H         3.226616        -0.869530         1.060258
 H         2.083465         2.491648         0.844458
 H         3.694574         2.738373        -0.474455
