19
Iteration:  4395
 C         0.853085         2.855625        -1.690649
 C         1.979193         1.919207        -1.350720
 C         3.052535         1.430148        -2.310228
 C         3.277899         0.233508        -1.424447
 O         4.005856        -0.947833        -1.591161
 C         1.793239         0.382356        -0.896066
 C         2.929993         0.714020         0.025508
 O         3.262149        -0.017309         1.190222
 C         2.722706         2.232906         0.016377
 H         0.226958         3.036716        -0.812001
 H         1.185575         3.910929        -1.850897
 H         0.280921         2.535173        -2.561046
 H         2.664660         1.392562        -3.265655
 H         4.029254         1.904015        -2.208858
 H         3.429418        -1.679105        -1.892547
 H         0.997833        -0.271212        -0.729798
 H         4.237556        -0.095815         1.173795
 H         2.045800         2.511760         0.841062
 H         3.549890         2.911893        -0.095043
