19
Iteration:  3995charge 0 multiplicity 1
 C         0.815885         2.828821        -1.869957
 C         1.952219         1.939770        -1.309070
 C         3.026957         1.459742        -2.324805
 C         3.266851         0.312566        -1.325387
 O         3.741428        -1.070155        -1.708440
 C         1.816828         0.392810        -0.759561
 C         2.993757         0.777784         0.080081
 O         3.405013        -0.098025         1.146038
 C         2.807673         2.269182         0.047933
 H         0.215740         3.204908        -1.009025
 H         1.234664         3.809577        -2.123211
 H         0.229041         2.487532        -2.760158
 H         2.643489         1.144326        -3.226397
 H         3.832519         2.195853        -2.416336
 H         4.437580        -1.316538        -1.099791
 H         0.914701        -0.181986        -0.807093
 H         4.275614         0.101328         1.598859
 H         2.245702         2.563288         0.915149
 H         3.696174         2.834551         0.070703
