19
Iteration:  2919
 C         0.865797         2.952108        -1.796275
 C         1.968038         1.996695        -1.342693
 C         3.110407         1.373170        -2.345037
 C         3.135900         0.298031        -1.355578
 O         3.627077        -0.975085        -1.561849
 C         1.803112         0.385541        -0.738997
 C         2.984906         0.695815         0.095249
 O         3.607165        -0.120908         1.079911
 C         2.707948         2.267211         0.053083
 H         0.138740         3.166676        -1.037106
 H         1.492463         3.889784        -2.116142
 H         0.336655         2.582653        -2.718092
 H         2.696479         0.786955        -3.171038
 H         4.088644         1.837222        -2.352932
 H         4.409144        -0.811618        -2.081732
 H         0.967697        -0.169326        -0.774294
 H         3.928657        -0.977489         0.665878
 H         2.022281         2.441731         0.840119
 H         3.490812         3.094642         0.247153
