19
Iteration:   252charge 0 multiplicity 1
 C         0.873772         2.837787        -1.694495
 C         2.007204         2.020936        -1.243287
 C         3.085956         1.414195        -2.375805
 C         3.135725         0.212674        -1.464805
 O         3.788825        -0.982501        -1.626768
 C         1.771479         0.389393        -0.844032
 C         2.885581         0.702855         0.062096
 O         3.588328         0.055338         1.029830
 C         2.785955         2.174110         0.109603
 H         0.061587         2.934103        -0.977419
 H         1.216553         3.822398        -2.127357
 H         0.551719         2.220496        -2.565672
 H         2.485679         1.134860        -3.237534
 H         3.860977         2.118379        -2.578724
 H         4.392733        -1.071746        -0.892976
 H         0.634848        -0.170203        -0.745847
 H         2.807598        -0.310359         1.568834
 H         1.978394         2.305262         0.929049
 H         3.675691         2.759400         0.198926
