19
Iteration:  2908
 C         0.923041         2.952588        -1.822925
 C         1.937022         1.926931        -1.330043
 C         3.059213         1.430008        -2.315542
 C         3.118020         0.236147        -1.377536
 O         3.655202        -1.068343        -1.634837
 C         1.779753         0.473177        -0.738238
 C         3.074840         0.762789         0.123951
 O         3.590957        -0.090332         1.125910
 C         2.669648         2.219114         0.110019
 H         0.233727         3.235034        -1.039744
 H         1.416095         3.965534        -2.145567
 H         0.321513         2.549396        -2.675938
 H         2.850050         1.277664        -3.379551
 H         3.939172         2.021659        -2.470822
 H         4.551957        -1.038568        -1.985938
 H         1.045990        -0.219304        -0.602448
 H         3.870939        -0.884920         0.567192
 H         1.815068         2.516659         0.652653
 H         3.511521         3.029527         0.057894
