19
Iteration:   213charge 0 multiplicity 1
 C         0.805694         2.926639        -1.722056
 C         1.941977         1.841206        -1.321310
 C         3.063238         1.400343        -2.298253
 C         3.231242         0.256573        -1.323612
 O         3.791996        -0.866763        -1.743953
 C         1.788168         0.423247        -0.659972
 C         3.021970         0.771311         0.090695
 O         3.492840        -0.140578         1.100975
 C         2.778781         2.196958        -0.114640
 H        -0.094070         3.175852        -1.126582
 H         1.170245         3.927970        -1.968507
 H         0.443467         2.494098        -2.645600
 H         2.953345         0.908551        -3.314540
 H         3.837023         2.201841        -2.533753
 H         4.196747        -1.332728        -0.921965
 H         1.062305        -0.237595        -0.320611
 H         2.811238        -0.565316         1.583246
 H         2.134693         2.670121         0.583087
 H         3.598525         3.005962        -0.243106
