19
Iteration:  4096charge 0 multiplicity 1
 C         0.879379         2.834512        -1.707824
 C         1.995893         1.901475        -1.342852
 C         3.066828         1.502283        -2.355858
 C         3.219341         0.212225        -1.447950
 O         3.875190        -0.978221        -1.513694
 C         1.762644         0.399341        -0.788897
 C         3.004117         0.756015         0.077022
 O         3.394671        -0.015852         1.107409
 C         2.753488         2.264406         0.043260
 H        -0.003734         3.118834        -1.133571
 H         1.238020         3.796736        -2.162020
 H         0.491530         2.243163        -2.582695
 H         2.569443         1.083458        -3.209272
 H         3.973331         2.092862        -2.440569
 H         3.920696        -1.278963        -2.473996
 H         0.860712        -0.163409        -0.509504
 H         3.105043        -0.978589         1.100771
 H         2.049552         2.531498         0.884638
 H         3.543452         2.949335        -0.066414
