19
Iteration:  3581
 C         0.913827         2.939368        -1.758467
 C         1.920163         1.882817        -1.361390
 C         3.040749         1.384648        -2.357507
 C         3.117645         0.180747        -1.350471
 O         3.904424        -0.973218        -1.668524
 C         1.694535         0.478026        -0.827195
 C         2.851754         0.760392         0.084499
 O         3.527177        -0.076921         1.145249
 C         2.750546         2.203526         0.060119
 H         0.159207         3.110583        -0.947893
 H         1.328357         3.993838        -1.790335
 H         0.459896         2.893017        -2.777468
 H         2.645153         1.011940        -3.359966
 H         3.919028         2.109183        -2.423588
 H         4.243619        -1.351975        -0.868807
 H         0.884762        -0.287497        -0.657578
 H         4.468194        -0.033642         1.029075
 H         2.102264         2.424304         1.000330
 H         3.646922         2.900490        -0.090548
