19
Iteration:  4990
 C         0.838380         2.931569        -1.741944
 C         1.924267         1.887543        -1.317366
 C         3.116432         1.511773        -2.303610
 C         3.181613         0.194101        -1.401187
 O         3.879589        -1.049253        -1.709345
 C         1.839534         0.407021        -0.780989
 C         2.937215         0.714238         0.108408
 O         3.416118        -0.022513         1.148854
 C         2.662935         2.231075        -0.037240
 H         0.045481         2.922862        -0.977485
 H         1.231963         3.895615        -2.012758
 H         0.183456         2.570933        -2.614934
 H         2.640348         1.249235        -3.282459
 H         4.017192         2.237135        -2.381462
 H         4.179248        -1.310422        -0.843574
 H         1.214904        -0.505690        -0.504651
 H         4.395470         0.078658         1.194111
 H         2.057707         2.550564         0.790111
 H         3.532558         2.855112        -0.097692
