19
Iteration:  1260
 C         0.897551         2.844875        -1.859040
 C         1.978840         1.959051        -1.289692
 C         3.089136         1.398422        -2.285697
 C         3.002100         0.173517        -1.391776
 O         3.766130        -0.997903        -1.547490
 C         1.714724         0.408102        -0.804570
 C         2.984905         0.729810         0.087605
 O         3.667134         0.042465         1.059649
 C         2.678263         2.244164         0.116403
 H         0.159455         2.966812        -1.088919
 H         1.391385         3.826537        -2.032222
 H         0.450861         2.397463        -2.802189
 H         2.650096         1.379196        -3.299450
 H         4.001837         1.887475        -2.335476
 H         4.582479        -0.506291        -1.839781
 H         0.780762        -0.168566        -0.667631
 H         3.742883        -0.864936         0.607497
 H         1.798018         2.312807         0.792412
 H         3.602378         2.889521         0.219785
