19
Iteration:  3797charge 0 multiplicity 1
 C         0.858148         2.827762        -1.720189
 C         2.005572         1.948133        -1.326174
 C         3.108935         1.404088        -2.362969
 C         3.133559         0.215370        -1.421494
 O         3.850206        -0.941825        -1.671201
 C         1.817872         0.343325        -0.803119
 C         2.932331         0.800170         0.078443
 O         3.334301        -0.125131         1.145406
 C         2.832869         2.335102         0.014717
 H         0.273380         3.091306        -0.806616
 H         1.127601         3.756040        -2.160020
 H         0.108639         2.276084        -2.283338
 H         2.594987         1.172344        -3.268916
 H         3.955559         2.114148        -2.548603
 H         3.924659        -1.565988        -0.961265
 H         0.910258        -0.200771        -0.523759
 H         4.231816         0.221854         1.306689
 H         2.103283         2.696738         0.806682
 H         3.782196         2.946047        -0.045731
