19
Iteration:  3347charge 0 multiplicity 1
 C         0.799994         2.863066        -1.757127
 C         1.985463         1.902681        -1.391581
 C         3.102763         1.460065        -2.250296
 C         3.237916         0.259197        -1.337299
 O         3.800911        -0.963257        -1.741661
 C         1.800385         0.447919        -0.735471
 C         2.986507         0.759877         0.078508
 O         3.395472        -0.174000         1.131903
 C         2.759566         2.249138        -0.002107
 H         0.212634         3.196837        -0.902417
 H         1.148217         3.796690        -2.240622
 H         0.252515         2.418532        -2.593402
 H         2.809536         1.192299        -3.208345
 H         3.922301         2.184949        -2.285297
 H         3.725805        -1.482433        -0.930804
 H         0.909902        -0.267554        -0.645293
 H         4.242354         0.244552         1.398781
 H         2.068868         2.808839         0.643389
 H         3.730670         2.720806        -0.120813
