19
Iteration:  2073charge 0 multiplicity 1
 C         0.871138         2.779414        -1.877625
 C         1.981219         1.988360        -1.216328
 C         2.986326         1.516624        -2.249436
 C         3.126951         0.255433        -1.456185
 O         3.790848        -1.034857        -1.666886
 C         1.739073         0.499702        -0.762290
 C         2.996277         0.743600         0.047521
 O         3.553611        -0.080872         0.979846
 C         2.820309         2.207785         0.145163
 H        -0.013214         3.079683        -1.228754
 H         1.355464         3.723155        -2.258298
 H         0.524583         2.062758        -2.643352
 H         2.538143         1.204674        -3.241869
 H         3.925899         2.158456        -2.356924
 H         4.293877        -1.139697        -0.800265
 H         0.848491        -0.117345        -0.507009
 H         2.900168        -0.146501         1.655825
 H         2.301422         2.260074         1.190741
 H         3.800403         2.802960         0.219681
