19
Iteration:  2472
 C         0.884086         2.956462        -1.650854
 C         1.947479         1.939795        -1.386463
 C         3.071686         1.378829        -2.343895
 C         3.196568         0.245660        -1.410824
 O         3.728845        -1.028800        -1.745648
 C         1.797298         0.365791        -0.790178
 C         2.974306         0.768094         0.141097
 O         3.518621        -0.005557         1.172549
 C         2.797640         2.230036        -0.059140
 H         0.083291         2.567259        -1.014954
 H         1.112284         4.101765        -1.473905
 H         0.370617         2.633116        -2.598423
 H         2.633689         0.916496        -3.249227
 H         3.917226         2.013617        -2.381806
 H         4.365181        -1.254588        -1.076442
 H         0.822473        -0.085149        -0.396170
 H         3.013053        -0.798137         1.242716
 H         2.123765         2.817091         0.679761
 H         3.812422         2.951174         0.051518
