19
Iteration:  2926
 C         0.872402         2.929260        -1.794239
 C         2.009106         1.991552        -1.291209
 C         3.125196         1.343721        -2.334020
 C         3.150361         0.250036        -1.302158
 O         3.645863        -0.937667        -1.534280
 C         1.744528         0.411617        -0.798635
 C         2.956101         0.695436         0.107331
 O         3.597315        -0.100872         1.047409
 C         2.738024         2.266329         0.023186
 H         0.178716         3.150786        -0.971584
 H         1.227569         3.900918        -2.071425
 H         0.425123         2.619427        -2.693590
 H         2.482848         1.031725        -3.180304
 H         4.060734         2.093593        -2.583671
 H         4.423666        -0.872039        -2.083089
 H         0.849546        -0.308671        -0.803030
 H         3.919968        -0.914651         0.534012
 H         2.042573         2.321639         0.900725
 H         3.585303         2.867183         0.049425
