19
Iteration:  3225charge 0 multiplicity 1
 C         0.821155         2.835602        -1.785582
 C         2.101481         2.081711        -1.355193
 C         3.106265         1.434692        -2.267782
 C         3.148997         0.174357        -1.423839
 O         3.742082        -0.975507        -1.672488
 C         1.647271         0.395458        -0.826249
 C         2.896951         0.676157         0.078411
 O         3.626847        -0.076103         1.060412
 C         2.783773         2.245391         0.130731
 H         0.133342         2.909607        -0.972430
 H         0.980546         3.908830        -2.180262
 H         0.388507         2.287172        -2.693433
 H         2.720354         1.127733        -3.184912
 H         3.990809         2.082091        -2.311091
 H         4.446936        -0.979382        -0.975494
 H         0.715233        -0.094048        -0.882252
 H         3.160284        -0.108000         1.893172
 H         1.949038         2.724993         0.798431
 H         3.785269         2.769646         0.305276
