19
Iteration:  4622charge 0 multiplicity 1
 C         0.862958         2.980757        -1.799061
 C         1.889587         1.936432        -1.261419
 C         3.099051         1.425211        -2.246749
 C         3.187878         0.187569        -1.451553
 O         3.893478        -1.006525        -1.562853
 C         1.783450         0.464865        -0.871056
 C         2.945104         0.700696        -0.002126
 O         3.594389        -0.042593         1.082980
 C         2.628234         2.161782         0.037042
 H         0.139821         3.315130        -1.060952
 H         1.346377         3.932776        -2.184878
 H         0.272157         2.602822        -2.674694
 H         2.777758         1.289888        -3.316415
 H         3.888455         2.134911        -2.298377
 H         4.051466        -1.258889        -0.624563
 H         0.907118        -0.225215        -0.605786
 H         2.954944        -0.742792         1.392844
 H         1.995712         2.442389         0.876253
 H         3.354930         2.931883        -0.072111
