19
Iteration:  2768charge 0 multiplicity 1
 C         0.895117         2.877777        -1.735124
 C         1.980849         1.944712        -1.316724
 C         3.088494         1.370516        -2.253066
 C         3.079230         0.239596        -1.297721
 O         3.741414        -0.933386        -1.689018
 C         1.762512         0.423912        -0.791759
 C         2.889988         0.752312         0.090758
 O         3.610208        -0.068380         0.951124
 C         2.767963         2.242579         0.018129
 H         0.204684         3.085320        -0.955506
 H         1.347737         3.844994        -1.978288
 H         0.433503         2.438047        -2.640046
 H         3.027179         1.033269        -3.323529
 H         4.052894         1.869545        -2.419771
 H         3.825946        -1.615398        -1.014046
 H         0.948346        -0.286749        -0.553188
 H         3.386241         0.045803         1.919769
 H         2.192865         2.500240         0.973533
 H         3.623014         2.826614        -0.168981
