19
Iteration:  2384charge 0 multiplicity 1
 C         0.869101         2.889858        -1.742011
 C         1.969075         1.925266        -1.256203
 C         3.113415         1.465648        -2.280424
 C         3.146849         0.215544        -1.428951
 O         3.791857        -1.027130        -1.636839
 C         1.739685         0.450536        -0.809708
 C         3.003665         0.735667         0.025292
 O         3.521977        -0.110850         0.985324
 C         2.774685         2.267462         0.061341
 H         0.360430         3.246755        -0.839920
 H         0.999858         3.754486        -2.499114
 H         0.061831         2.288504        -2.249485
 H         2.721401         1.154407        -3.286306
 H         3.983762         2.121473        -2.437878
 H         4.085171        -1.156489        -0.739953
 H         0.935764        -0.102026        -0.311258
 H         3.097922         0.134313         1.796033
 H         2.010843         2.309051         0.780940
 H         3.570184         2.978727        -0.014544
