19
Iteration:  1482charge 0 multiplicity 1
 C         0.839485         2.798369        -1.695690
 C         2.041083         1.925507        -1.294600
 C         3.003472         1.386815        -2.411036
 C         3.130443         0.183403        -1.470363
 O         3.870817        -0.951901        -1.585615
 C         1.790606         0.523744        -0.833620
 C         3.091883         0.733708         0.037849
 O         3.371962        -0.047585         1.181246
 C         2.762293         2.286634         0.060347
 H         0.223727         2.918415        -0.750930
 H         1.160741         3.822671        -1.968930
 H         0.255415         2.354011        -2.534948
 H         2.203450         1.135158        -3.267503
 H         4.021434         1.856500        -2.610331
 H         3.719104        -1.498754        -2.389533
 H         0.860248         0.155433        -0.507556
 H         4.279924        -0.419536         1.192069
 H         2.191716         2.387541         1.014081
 H         3.529386         3.151629         0.201666
