19
Iteration:  2998charge 0 multiplicity 1
 C         0.912948         2.891262        -1.644541
 C         1.983062         1.864433        -1.347552
 C         3.044008         1.397904        -2.384939
 C         3.248849         0.294251        -1.368972
 O         3.742550        -1.068458        -1.759482
 C         1.799853         0.486531        -0.797354
 C         2.942431         0.759947         0.174686
 O         3.432637        -0.022236         1.225142
 C         2.798939         2.265797         0.016293
 H         0.346699         3.029688        -0.656839
 H         1.243580         3.916325        -1.932729
 H         0.293230         2.624605        -2.584593
 H         2.219905         1.125650        -3.196274
 H         3.984042         1.906985        -2.859788
 H         4.665546        -1.193585        -1.585029
 H         0.875372        -0.233130        -0.834288
 H         3.383536        -0.915499         0.777627
 H         1.952030         2.689102         0.559674
 H         3.710174         2.907604        -0.282039
