19
Iteration:    42charge 0 multiplicity 1
 C         0.806421         2.857922        -1.605306
 C         1.978239         1.939379        -1.391388
 C         3.095505         1.439642        -2.379377
 C         3.242763         0.231046        -1.369493
 O         3.737196        -0.999832        -1.647725
 C         1.788507         0.442015        -0.873432
 C         3.041087         0.704467         0.026666
 O         3.439676         0.068290         1.243441
 C         2.778237         2.124586        -0.044195
 H         0.237683         2.957592        -0.615069
 H         1.085981         3.880909        -1.972408
 H         0.041207         2.544111        -2.380707
 H         2.668893         1.091855        -3.329664
 H         3.981150         2.105845        -2.679888
 H         4.731170        -0.915426        -1.461640
 H         0.950352        -0.157007        -0.871478
 H         3.243376        -0.894180         1.189692
 H         2.137066         2.513130         0.834007
 H         3.562515         2.838911         0.014368
