19
Iteration:  1622charge 0 multiplicity 1
 C         0.881164         2.782839        -1.730907
 C         1.988479         1.976284        -1.266766
 C         3.072656         1.460957        -2.270355
 C         3.150461         0.176636        -1.420016
 O         3.767938        -1.021141        -1.631593
 C         1.714263         0.510184        -0.873673
 C         2.929114         0.672503         0.066552
 O         3.592548        -0.018895         0.988058
 C         2.773112         2.217150         0.108943
 H         0.058543         2.883075        -0.992762
 H         1.139753         3.832392        -1.881811
 H         0.522530         2.443775        -2.739449
 H         2.462046         1.218492        -3.150757
 H         3.988339         1.868375        -2.656829
 H         4.553716        -1.050109        -1.095894
 H         0.675088         0.030652        -0.842388
 H         3.226637         0.205435         1.833755
 H         2.148233         2.615119         0.936864
 H         3.589463         2.955557         0.131568
