19
Iteration:   996
 C         0.851483         2.740558        -1.839854
 C         1.941565         1.926598        -1.262335
 C         3.028605         1.566197        -2.247959
 C         3.131408         0.251453        -1.444917
 O         3.756272        -1.063443        -1.733961
 C         1.843125         0.459823        -0.743125
 C         3.042405         0.728223         0.060070
 O         3.492298         0.021201         1.222917
 C         2.837582         2.232325        -0.027906
 H        -0.010829         2.639045        -1.127384
 H         1.037156         3.856998        -1.964326
 H         0.422663         2.357496        -2.734071
 H         2.808382         1.263801        -3.350279
 H         3.883902         2.306353        -2.527674
 H         4.412540        -1.258288        -1.056895
 H         0.992436        -0.116148        -0.575706
 H         2.830638        -0.645042         1.505494
 H         2.049610         2.468935         0.690276
 H         3.725247         2.870253         0.007394
