19
Iteration:  3683
 C         0.876709         2.772257        -1.814408
 C         1.985021         1.978142        -1.249284
 C         3.111179         1.524431        -2.272539
 C         3.173754         0.141140        -1.381752
 O         3.792576        -1.014381        -1.747215
 C         1.711631         0.510107        -0.832418
 C         2.962793         0.697057         0.047718
 O         3.442824         0.013132         1.192197
 C         2.781070         2.210103         0.057531
 H         0.068188         2.767377        -1.077265
 H         1.079397         3.831575        -2.259556
 H         0.310321         2.129480        -2.499964
 H         2.700767         1.522762        -3.330440
 H         4.089531         2.007891        -2.228005
 H         3.838095        -1.710664        -1.028396
 H         0.791092        -0.077195        -0.603084
 H         4.443145         0.071823         1.139489
 H         2.111098         2.572360         0.816890
 H         3.811154         2.834553        -0.090233
