19
Iteration:  1285
 C         0.841558         2.881363        -1.845795
 C         1.856124         1.915711        -1.224826
 C         3.023789         1.503093        -2.247439
 C         3.335468         0.247519        -1.373666
 O         3.659723        -1.084403        -1.600976
 C         1.826931         0.402143        -0.760650
 C         3.034873         0.682316         0.009594
 O         3.563378         0.054080         1.124410
 C         2.704081         2.253268        -0.004327
 H        -0.101656         3.015631        -1.246369
 H         1.417328         3.788372        -2.017741
 H         0.626389         2.379651        -2.862700
 H         2.627536         1.288052        -3.219527
 H         3.810195         2.336435        -2.182386
 H         4.605210        -1.132848        -1.752707
 H         0.840343        -0.253153        -0.651989
 H         3.732242        -0.863270         0.821157
 H         1.981198         2.338197         0.821213
 H         3.652947         2.892660        -0.091473
