19
Iteration:  2951
 C         0.874147         2.844725        -1.699999
 C         1.994575         1.965543        -1.256118
 C         2.993858         1.507235        -2.330904
 C         3.055208         0.167526        -1.457367
 O         3.808722        -1.090398        -1.483399
 C         1.714020         0.465944        -0.824500
 C         2.893909         0.671092         0.032994
 O         3.500957        -0.022422         1.062155
 C         2.882684         2.279964         0.024715
 H         0.147929         3.086496        -0.979090
 H         1.360619         3.870966        -1.909209
 H         0.522531         2.608587        -2.701679
 H         2.708214         1.316923        -3.417517
 H         3.956968         2.248635        -2.275091
 H         4.697815        -0.880144        -1.848323
 H         0.740574         0.175594        -0.851122
 H         4.049766        -0.701168         0.670266
 H         2.324110         2.503949         0.869182
 H         3.864022         2.671402        -0.054624
