19
Iteration:  3442
 C         0.903541         2.938601        -1.706249
 C         1.972679         1.940730        -1.323325
 C         2.996027         1.356707        -2.382064
 C         3.166021         0.175962        -1.418987
 O         3.962328        -0.920742        -1.659095
 C         1.713431         0.483035        -0.803775
 C         2.931559         0.708331         0.054513
 O         3.425693        -0.071794         1.140093
 C         2.688307         2.209273         0.042646
 H         0.244150         3.066395        -0.903600
 H         1.503343         3.890888        -1.824032
 H         0.629305         2.557758        -2.685205
 H         2.498098         1.054105        -3.383029
 H         3.941859         1.930678        -2.646437
 H         3.682062        -1.628680        -0.988707
 H         1.056221        -0.399615        -0.409353
 H         4.382148         0.101384         1.357615
 H         1.955717         2.688262         0.803302
 H         3.675023         2.795930         0.044537
