19
Iteration:   176
 C         0.872463         2.851813        -1.665816
 C         1.988494         1.985248        -1.225634
 C         2.958143         1.458731        -2.371258
 C         3.130319         0.196845        -1.462421
 O         3.969124        -0.999345        -1.659102
 C         1.708750         0.502042        -0.866430
 C         2.947985         0.639968         0.063280
 O         3.523832        -0.010114         1.075227
 C         2.805443         2.152844         0.046584
 H         0.007246         2.904777        -0.978282
 H         1.181212         3.818942        -2.205903
 H         0.523031         2.183714        -2.510832
 H         2.296593         1.214009        -3.275423
 H         3.883456         2.040873        -2.575468
 H         4.124834        -1.331625        -0.711465
 H         0.520957         0.098034        -0.733372
 H         3.267781         0.378042         1.898716
 H         1.984656         2.558411         0.719858
 H         3.635444         2.760198         0.105107
