19
Iteration:  4869
 C         0.814898         2.741700        -1.685515
 C         2.003757         1.942984        -1.339396
 C         3.229423         1.406370        -2.375381
 C         3.186717         0.253294        -1.407608
 O         3.719898        -0.970089        -1.727945
 C         1.797315         0.462815        -0.850671
 C         2.983996         0.730618         0.100477
 O         3.451066        -0.050986         1.221322
 C         2.760631         2.262073         0.052835
 H         0.029073         2.661359        -0.912693
 H         0.912315         3.746039        -1.990148
 H         0.257810         2.216388        -2.512315
 H         2.785154         0.923410        -3.219388
 H         4.083739         2.054165        -2.518809
 H         4.723558        -0.844150        -1.795341
 H         0.854846         0.023790        -0.981648
 H         2.921286         0.419111         1.937118
 H         2.011227         2.486253         0.828843
 H         3.606286         2.976105        -0.048128
