19
Iteration:  3227charge 0 multiplicity 1
 C         0.832178         2.817293        -1.777020
 C         2.094634         2.084684        -1.364181
 C         3.092171         1.441473        -2.269552
 C         3.115479         0.168263        -1.414133
 O         3.751882        -0.974152        -1.662640
 C         1.669400         0.413289        -0.835302
 C         2.895748         0.675095         0.061077
 O         3.620359        -0.073044         1.054936
 C         2.786371         2.230256         0.144176
 H         0.129503         2.933047        -0.944900
 H         0.992601         3.847426        -2.164599
 H         0.494057         2.309113        -2.708005
 H         2.706479         1.166849        -3.235466
 H         3.996901         2.121067        -2.296719
 H         4.495362        -1.033172        -0.971419
 H         0.655973        -0.085108        -0.907016
 H         3.204468        -0.038495         1.950529
 H         1.992362         2.678991         0.795770
 H         3.787311         2.813956         0.274156
