19
Iteration:  1890
 C         0.838764         2.909201        -1.640398
 C         1.946854         1.910111        -1.389652
 C         3.125840         1.462581        -2.262416
 C         3.189627         0.214396        -1.336662
 O         3.783860        -0.967875        -1.691557
 C         1.753152         0.436099        -0.845660
 C         2.913991         0.747477         0.106578
 O         3.584163        -0.114636         1.049735
 C         2.751005         2.257389        -0.018853
 H         0.236270         3.289976        -0.807912
 H         1.172377         3.797178        -2.268761
 H        -0.024687         2.633576        -2.305328
 H         2.791898         0.923396        -3.208844
 H         4.013849         1.998579        -2.485532
 H         4.133246        -1.277646        -0.860742
 H         1.091798        -0.543766        -1.001026
 H         2.960865        -0.116798         1.816941
 H         1.996683         2.501271         0.752345
 H         3.753423         2.794606        -0.106009
