19
Iteration:   254charge 0 multiplicity 1
 C         0.886715         2.821088        -1.695547
 C         2.015177         2.024069        -1.255189
 C         3.082548         1.424816        -2.383623
 C         3.144299         0.229718        -1.452249
 O         3.783675        -0.974773        -1.614992
 C         1.750437         0.395054        -0.830865
 C         2.877741         0.686359         0.059860
 O         3.592475         0.061312         1.020167
 C         2.784701         2.150959         0.103388
 H         0.071983         2.937751        -0.939131
 H         1.210608         3.848682        -2.123435
 H         0.527238         2.201717        -2.559239
 H         2.482141         1.137666        -3.309339
 H         3.911695         2.121715        -2.653286
 H         4.409768        -1.079709        -0.913620
 H         0.618604        -0.144542        -0.767447
 H         2.848684        -0.255809         1.602831
 H         2.010954         2.277224         0.923667
 H         3.638330         2.717390         0.318433
