19
Iteration:  3590
 C         0.960165         2.956125        -1.738440
 C         1.963886         1.918044        -1.319726
 C         3.001797         1.354570        -2.375716
 C         3.109732         0.168733        -1.403611
 O         3.941324        -0.939284        -1.647737
 C         1.644108         0.387669        -0.825040
 C         2.943730         0.721125         0.080896
 O         3.477905        -0.031571         1.143989
 C         2.755868         2.182831         0.033412
 H         0.128772         2.952228        -0.927011
 H         1.384293         3.973210        -1.800307
 H         0.402589         2.549966        -2.619493
 H         2.557928         1.415215        -3.386498
 H         3.777702         2.220472        -2.472825
 H         4.029079        -1.315492        -0.776242
 H         0.600550        -0.006050        -0.691579
 H         4.425837        -0.097521         1.084008
 H         2.019063         2.682687         0.822163
 H         3.654712         2.810388         0.021627
