19
Iteration:  3579charge 0 multiplicity 1
 C         0.901202         2.939550        -1.761535
 C         1.911663         1.884380        -1.368763
 C         3.043838         1.394770        -2.341830
 C         3.121130         0.191665        -1.348608
 O         3.889015        -0.975852        -1.669916
 C         1.712418         0.487549        -0.823031
 C         2.849885         0.738759         0.085105
 O         3.528910        -0.084548         1.141679
 C         2.750071         2.223123         0.054120
 H         0.103998         3.113334        -0.935171
 H         1.369985         3.952002        -1.815743
 H         0.468436         2.956383        -2.808881
 H         2.662843         0.886391        -3.291453
 H         4.024949         2.053090        -2.416225
 H         4.302356        -1.384999        -0.874501
 H         0.963040        -0.325022        -0.658703
 H         4.478064         0.027971         0.978534
 H         2.069545         2.420574         1.039081
 H         3.619499         2.872668        -0.094913
