19
Iteration:  4213
 C         0.838491         2.863881        -1.802766
 C         1.942637         1.934022        -1.351278
 C         3.063244         1.439583        -2.321888
 C         3.198044         0.248455        -1.367861
 O         3.896220        -0.948862        -1.553637
 C         1.766535         0.386448        -0.800306
 C         2.894386         0.729171         0.108072
 O         3.371455        -0.096620         1.123435
 C         2.841623         2.224677         0.067652
 H        -0.075526         3.061746        -1.203595
 H         1.435007         3.746271        -1.885164
 H         0.524217         2.496211        -2.794250
 H         2.523645         1.268571        -3.260555
 H         4.098224         1.844322        -2.439306
 H         3.551920        -1.093747        -2.440754
 H         0.998289        -0.360636        -0.962614
 H         4.220002         0.316906         1.417373
 H         2.295735         2.656315         0.923446
 H         3.840517         2.799541        -0.219654
