19
Iteration:   575charge 0 multiplicity 1
 C         0.814061         2.804189        -1.732071
 C         1.988904         1.964499        -1.272945
 C         3.070456         1.391996        -2.329556
 C         3.272272         0.270790        -1.295217
 O         3.799045        -0.930257        -1.731945
 C         1.760212         0.473039        -0.856371
 C         2.945264         0.756995         0.127465
 O         3.546125        -0.110428         1.127473
 C         2.756352         2.254063        -0.047456
 H         0.118472         2.872477        -0.883114
 H         1.241777         3.712142        -2.065103
 H         0.340480         2.340544        -2.621086
 H         2.414923         1.080912        -3.204586
 H         3.791118         2.206086        -2.619777
 H         3.859125        -1.597497        -1.057709
 H         0.841398        -0.340249        -1.040610
 H         3.027404        -0.138127         1.924423
 H         2.167351         2.570239         0.881668
 H         3.634398         2.888326        -0.154414
