19
Iteration:   791charge 0 multiplicity 1
 C         0.852786         2.904209        -1.801136
 C         1.952211         1.960949        -1.339850
 C         3.113855         1.352922        -2.277950
 C         3.126185         0.176093        -1.381732
 O         3.782635        -0.989230        -1.646046
 C         1.768416         0.364716        -0.894418
 C         2.834964         0.753402         0.204254
 O         3.719621        -0.057021         1.034581
 C         2.617867         2.340331         0.079360
 H         0.213858         3.060644        -0.860123
 H         1.337230         3.936191        -1.952822
 H         0.216394         2.518746        -2.592149
 H         2.743057         1.226970        -3.252202
 H         4.189153         1.607557        -2.447987
 H         4.628932        -0.910592        -1.273397
 H         0.978271        -0.214501        -1.028692
 H         3.293546        -0.302782         1.920336
 H         1.906699         2.625203         0.772554
 H         3.502033         2.885863         0.048594
