19
Iteration:  3852
 C         0.925866         2.823095        -1.830255
 C         1.959573         1.942854        -1.279706
 C         3.141623         1.466056        -2.250975
 C         3.112512         0.216795        -1.410269
 O         3.766660        -0.975706        -1.776480
 C         1.795391         0.396007        -0.655474
 C         2.916874         0.761291         0.113405
 O         3.470949        -0.050565         1.133095
 C         2.699918         2.220469        -0.000075
 H         0.090344         2.927647        -1.099402
 H         1.277380         3.750639        -2.196720
 H         0.512929         2.399439        -2.753820
 H         2.911821         1.323571        -3.265305
 H         4.026178         2.152781        -2.172912
 H         3.801322        -1.491048        -0.945700
 H         0.902916        -0.297155        -0.701236
 H         4.440014         0.240604         1.102932
 H         2.061697         2.743472         0.797307
 H         3.783688         2.676673        -0.093581
