19
Iteration:  1274charge 0 multiplicity 1
 C         0.906301         2.847398        -1.861881
 C         1.910329         1.912144        -1.281931
 C         3.056861         1.500920        -2.247248
 C         3.191762         0.251387        -1.422769
 O         3.726812        -1.065680        -1.560628
 C         1.709633         0.447570        -0.739504
 C         3.021816         0.714558         0.015537
 O         3.613995         0.048574         1.069920
 C         2.663980         2.167895         0.080563
 H        -0.003691         3.030028        -1.236066
 H         1.279240         3.852825        -2.064242
 H         0.477674         2.492725        -2.883998
 H         2.771459         1.286536        -3.259732
 H         3.963477         2.214853        -2.352387
 H         4.627419        -1.133522        -1.864584
 H         0.893064        -0.301451        -0.313115
 H         3.720127        -0.877701         0.924353
 H         2.126856         2.474567         0.997251
 H         3.399841         3.059910         0.015109
