19
Iteration:  4809
 C         0.930161         2.912525        -1.861636
 C         1.981485         1.890856        -1.333953
 C         2.993777         1.443381        -2.262347
 C         3.156088         0.281476        -1.379303
 O         3.847308        -0.929548        -1.573573
 C         1.748486         0.414571        -0.829633
 C         2.960918         0.647439         0.063736
 O         3.595359        -0.055882         1.161704
 C         2.704926         2.167752         0.056880
 H         0.116210         2.913972        -1.100254
 H         1.383218         3.972340        -2.037755
 H         0.537480         2.539860        -2.841304
 H         2.534094         0.996897        -3.238733
 H         3.788800         2.160310        -2.663724
 H         3.909767        -1.175053        -2.510016
 H         0.844383        -0.188825        -0.802359
 H         2.980350         0.141430         1.880564
 H         1.936845         2.293355         0.843011
 H         3.426815         2.941097         0.242521
