19
Iteration:  3275charge 0 multiplicity 1
 C         0.865965         2.995852        -1.765771
 C         1.889081         1.904247        -1.322670
 C         3.012728         1.404178        -2.299108
 C         3.145601         0.210917        -1.372051
 O         3.890269        -0.965266        -1.652827
 C         1.816887         0.429169        -0.837900
 C         2.994567         0.758950         0.149401
 O         3.471950        -0.174876         1.080202
 C         2.739690         2.231110        -0.056798
 H         0.229787         3.113904        -0.833609
 H         1.169653         4.017645        -1.871586
 H         0.423400         2.852487        -2.737467
 H         2.452283         1.118945        -3.319782
 H         3.948327         2.025023        -2.382778
 H         3.886187        -1.353122        -0.766048
 H         1.059523        -0.297992        -0.703412
 H         3.980135        -0.036161         1.910412
 H         2.047297         2.707090         0.602478
 H         3.673277         2.801109        -0.067351
