19
Iteration:  4675
 C         0.837305         2.859459        -1.868063
 C         1.933655         1.929954        -1.227118
 C         3.079599         1.519838        -2.266799
 C         3.192997         0.207065        -1.375958
 O         3.822020        -1.066603        -1.641882
 C         1.753391         0.392560        -0.897976
 C         2.937045         0.712395         0.090024
 O         3.522059        -0.046401         1.122934
 C         2.786932         2.217044         0.102232
 H        -0.035156         3.055304        -1.230488
 H         1.177066         3.919115        -1.782125
 H         0.536601         2.687269        -2.945936
 H         2.715175         1.258639        -3.316850
 H         3.895474         2.344465        -2.404574
 H         4.805381        -0.878282        -1.720546
 H         0.800770        -0.269252        -1.060690
 H         2.837177         0.164768         1.824018
 H         2.112905         2.520154         0.883242
 H         3.640280         2.861218         0.003041
