19
Iteration:  4776charge 0 multiplicity 1
 C         0.946658         2.941573        -1.758363
 C         1.915144         1.903615        -1.253742
 C         3.037883         1.452957        -2.226431
 C         3.187309         0.153218        -1.399942
 O         3.974956        -0.926147        -1.572741
 C         1.752988         0.350285        -0.783268
 C         2.866780         0.729241         0.022229
 O         3.532106        -0.052928         1.021362
 C         2.691867         2.315219        -0.003648
 H         0.103975         3.248485        -1.095576
 H         1.601841         3.773549        -2.265784
 H         0.349858         2.410811        -2.543731
 H         2.541181         1.004792        -3.182687
 H         3.982897         2.114504        -2.308778
 H         3.530377        -1.749623        -1.645221
 H         0.885425        -0.223779        -0.627846
 H         2.923084        -0.710316         1.337364
 H         1.962899         2.570372         0.777627
 H         3.474313         3.005807        -0.164012
