19
Iteration:  3535charge 0 multiplicity 1
 C         0.817801         2.762788        -1.826030
 C         1.959852         1.945650        -1.220424
 C         3.103537         1.473196        -2.323330
 C         3.195209         0.229679        -1.465919
 O         3.740695        -1.036059        -1.675870
 C         1.787588         0.486939        -0.779459
 C         3.031042         0.686780        -0.006649
 O         3.464879        -0.074094         1.104845
 C         2.788098         2.229213         0.117240
 H         0.035057         3.144247        -1.041197
 H         1.380539         3.729853        -1.927740
 H         0.484510         2.506694        -2.887222
 H         2.526535         1.438434        -3.304468
 H         4.018325         2.207518        -2.405051
 H         3.975475        -1.189685        -0.749966
 H         0.809603         0.035829        -0.594826
 H         3.956518         0.494697         1.693137
 H         1.860915         2.692168         0.775017
 H         3.703901         2.845179         0.243879
