19
Iteration:  4143
 C         0.846648         2.862283        -1.826423
 C         1.954531         1.975035        -1.284419
 C         3.175520         1.463079        -2.294341
 C         3.199684         0.227376        -1.334817
 O         3.871094        -0.937875        -1.677966
 C         1.730047         0.375866        -0.871122
 C         2.913236         0.671647         0.126046
 O         3.439508         0.001218         1.235087
 C         2.726229         2.190186        -0.057904
 H         0.296380         3.130568        -0.946556
 H         1.295559         3.829001        -1.987719
 H         0.195390         2.497216        -2.574512
 H         2.761377         1.277609        -3.306712
 H         4.005093         2.104422        -2.221946
 H         3.250810        -1.663482        -1.644898
 H         0.907907        -0.312508        -0.817581
 H         4.274285        -0.439191         0.996662
 H         2.040567         2.549345         0.757016
 H         3.692148         2.759194        -0.028607
