19
Iteration:  1319
 C         0.818301         2.763186        -1.682720
 C         2.047865         1.916039        -1.320871
 C         3.088401         1.375075        -2.457929
 C         3.206257         0.258527        -1.365267
 O         3.713003        -0.956958        -1.738837
 C         1.790944         0.459718        -0.799867
 C         2.931019         0.711664         0.068163
 O         3.464704         0.091965         1.307693
 C         2.812075         2.182779        -0.017265
 H         0.119027         2.769949        -0.771874
 H         1.027219         3.824538        -1.869042
 H         0.189536         2.390840        -2.520073
 H         2.614724         1.084096        -3.383216
 H         4.039208         1.961683        -2.626950
 H         4.654618        -0.837297        -1.700928
 H         0.841844        -0.018867        -0.708973
 H         3.779214        -0.777279         1.093145
 H         2.066821         2.559612         0.703585
 H         3.721667         2.810873         0.213747
