19
Iteration:  2266charge 0 multiplicity 1
 C         0.924414         2.876516        -1.756334
 C         1.929467         1.923304        -1.303817
 C         3.156976         1.480256        -2.272274
 C         3.157706         0.257625        -1.378128
 O         3.636410        -0.993176        -1.647316
 C         1.745799         0.426841        -0.901711
 C         2.934318         0.712745         0.181031
 O         3.665221        -0.108047         1.056889
 C         2.705268         2.224956         0.025110
 H         0.130111         2.840070        -0.988554
 H         1.287529         3.877051        -1.827215
 H         0.389737         2.558409        -2.770927
 H         2.645197         1.091896        -3.136001
 H         3.970305         2.221533        -2.580877
 H         4.547934        -1.068156        -1.293450
 H         1.075228        -0.373684        -0.877984
 H         3.286739        -0.015976         1.962817
 H         1.900531         2.659832         0.726886
 H         3.532641         2.923625        -0.278255
