19
Iteration:  1687
 C         0.873154         2.888074        -1.702728
 C         2.020845         1.900342        -1.319310
 C         2.946847         1.377629        -2.410180
 C         3.170567         0.244398        -1.387658
 O         3.888708        -0.902890        -1.735097
 C         1.747020         0.468601        -0.783899
 C         2.889455         0.693342         0.092218
 O         3.436531         0.004968         1.182367
 C         2.910995         2.151928         0.034570
 H         0.373380         3.073595        -0.701694
 H         1.210706         3.834159        -2.203299
 H         0.074661         2.447034        -2.435619
 H         2.177241         1.132017        -3.110227
 H         3.837727         1.916599        -2.737408
 H         4.553669        -1.090967        -1.044125
 H         0.871341        -0.255734        -1.008919
 H         3.004128        -0.792481         1.565847
 H         2.315781         2.600880         0.932133
 H         3.913781         2.742643        -0.074214
