19
Iteration:  1233charge 0 multiplicity 1
 C         0.877056         2.857832        -1.799420
 C         1.929998         1.925954        -1.335341
 C         3.057314         1.416277        -2.282912
 C         3.135328         0.251460        -1.308553
 O         3.840411        -1.007467        -1.566610
 C         1.657182         0.456477        -0.842588
 C         2.888058         0.716485         0.153163
 O         3.563876        -0.020077         1.058327
 C         2.762877         2.200406         0.017667
 H         0.355697         3.121145        -0.841670
 H         1.353005         3.795778        -2.066658
 H         0.245755         2.401590        -2.532687
 H         2.523865         1.134380        -3.250546
 H         3.919061         2.049143        -2.761040
 H         4.753184        -0.612856        -1.487000
 H         0.834231        -0.270339        -0.614432
 H         4.237296        -0.446876         0.441454
 H         2.125255         2.611072         0.786955
 H         3.722076         2.683763        -0.138825
