19
Iteration:  4760
 C         0.875938         2.852459        -1.794658
 C         1.945629         1.885660        -1.300939
 C         3.032923         1.465228        -2.303856
 C         3.090092         0.287739        -1.395229
 O         3.978745        -0.931243        -1.570976
 C         1.735470         0.412803        -0.852107
 C         3.030680         0.757176         0.034953
 O         3.479795        -0.040912         1.112526
 C         2.737772         2.155494         0.001348
 H         0.382874         3.112322        -0.850019
 H         1.416167         3.674485        -2.149038
 H         0.116614         2.570945        -2.531089
 H         2.714071         1.503815        -3.290980
 H         3.912770         2.065847        -2.162717
 H         3.408633        -1.691140        -1.331541
 H         0.893914        -0.321080        -0.594951
 H         2.711829        -0.619342         1.339481
 H         2.256225         2.589228         0.887981
 H         3.718646         2.801793        -0.040397
