19
Iteration:  4320charge 0 multiplicity 1
 C         0.857919         2.866617        -1.880458
 C         1.926279         1.985232        -1.274125
 C         3.153727         1.452661        -2.169249
 C         3.139651         0.156281        -1.334568
 O         3.898151        -0.990525        -1.609243
 C         1.735424         0.449861        -0.877488
 C         2.981921         0.710908         0.056624
 O         3.535860        -0.052686         1.083865
 C         2.676516         2.221896         0.037397
 H         0.077181         2.971089        -1.060639
 H         1.098397         3.931442        -2.152385
 H         0.423357         2.394989        -2.748616
 H         2.757873         1.227695        -3.257325
 H         3.916567         2.268535        -2.243017
 H         3.800924        -1.339589        -2.493207
 H         0.965952        -0.229778        -0.610323
 H         2.972008        -0.029878         1.882619
 H         2.034833         2.496049         0.847052
 H         3.600732         2.803710         0.165659
