19
Iteration:   762charge 0 multiplicity 1
 C         0.950055         2.834600        -1.856016
 C         1.863126         1.873810        -1.268479
 C         2.973553         1.497391        -2.208473
 C         3.176765         0.221468        -1.379960
 O         3.798111        -0.965494        -1.670228
 C         1.727414         0.438037        -0.772319
 C         3.045972         0.682414        -0.021935
 O         3.559731         0.008868         1.079897
 C         2.759054         2.150865         0.036340
 H         0.150857         3.068115        -1.175898
 H         1.438390         3.751334        -1.973419
 H         0.418144         2.578319        -2.798578
 H         2.626433         1.420821        -3.286920
 H         3.903316         2.051559        -2.362061
 H         4.480624        -1.164832        -0.984298
 H         0.804727        -0.254671        -0.628062
 H         3.083777         0.299845         1.867470
 H         2.072705         2.158661         0.987812
 H         3.585949         2.937020         0.060042
