19
Iteration:  3853
 C         0.921467         2.835038        -1.837345
 C         1.963135         1.925350        -1.285929
 C         3.145240         1.470066        -2.251413
 C         3.105456         0.206268        -1.399923
 O         3.770840        -0.968049        -1.777528
 C         1.783717         0.396887        -0.646374
 C         2.921845         0.761502         0.110653
 O         3.472396        -0.056515         1.133727
 C         2.704138         2.216532        -0.001024
 H         0.129570         2.933482        -1.112629
 H         1.242481         3.766575        -2.167820
 H         0.529798         2.403578        -2.745965
 H         2.935522         1.329158        -3.275285
 H         4.025342         2.164350        -2.198076
 H         3.792346        -1.494409        -0.926210
 H         0.881651        -0.283610        -0.708725
 H         4.438561         0.300024         1.063064
 H         2.081078         2.727279         0.824503
 H         3.743166         2.730926        -0.098473
