19
Iteration:   696
 C         0.781628         2.851256        -1.626251
 C         2.008407         1.974555        -1.297552
 C         3.117360         1.378482        -2.324489
 C         3.125372         0.190568        -1.420539
 O         3.902346        -0.963295        -1.627441
 C         1.752031         0.379580        -0.824877
 C         2.973992         0.769481        -0.004624
 O         3.453298        -0.043866         1.048302
 C         2.791761         2.282812        -0.039511
 H         0.204407         2.998682        -0.744668
 H         1.150497         3.744400        -1.952826
 H         0.237413         2.267857        -2.367212
 H         2.607124         1.368690        -3.320018
 H         4.076539         1.895332        -2.502650
 H         4.174833        -1.287576        -0.695859
 H         0.913705        -0.103376        -0.557981
 H         2.696981        -0.164990         1.657005
 H         2.177696         2.483503         0.905992
 H         3.709847         2.918789        -0.094953
