19
Iteration:  4975charge 0 multiplicity 1
 C         0.808799         2.952997        -1.799095
 C         1.925347         1.990944        -1.318778
 C         3.004847         1.432109        -2.340070
 C         3.178512         0.266952        -1.434742
 O         3.870909        -0.918053        -1.554951
 C         1.768010         0.273421        -0.805028
 C         3.019270         0.682655        -0.007321
 O         3.472272        -0.109863         1.140005
 C         2.757151         2.146293         0.030612
 H         0.094308         3.286626        -1.013017
 H         1.312357         3.941735        -2.093939
 H         0.385508         2.631923        -2.736561
 H         2.646795         1.281420        -3.372697
 H         3.883450         2.048526        -2.485745
 H         4.222055        -1.228254        -0.692475
 H         0.902685        -0.329584        -0.698217
 H         4.200616         0.432623         1.562949
 H         2.034079         2.443175         0.837439
 H         3.520970         2.912090         0.040299
