19
Iteration:  1222charge 0 multiplicity 1
 C         0.830632         2.901073        -1.745873
 C         1.897947         1.892625        -1.343468
 C         2.998418         1.428988        -2.305647
 C         3.176392         0.219279        -1.388330
 O         3.821969        -0.961354        -1.515197
 C         1.787522         0.393326        -0.806061
 C         2.958000         0.725780         0.022992
 O         3.476944        -0.043872         1.123125
 C         2.819447         2.229717        -0.032183
 H         0.142638         3.256948        -0.942304
 H         1.336183         3.740993        -2.220899
 H         0.157360         2.587603        -2.529110
 H         2.561572         1.077646        -3.288131
 H         3.784936         2.269651        -2.309979
 H         4.760256        -0.816604        -1.668353
 H         0.912788        -0.312790        -0.695606
 H         4.117506        -0.749776         0.931076
 H         2.299672         2.701325         0.791019
 H         3.756072         2.763914         0.013385
