19
Iteration:  2854
 C         0.871213         2.879995        -1.684950
 C         2.014158         1.975000        -1.367938
 C         3.057014         1.467955        -2.330805
 C         3.164697         0.187485        -1.397765
 O         3.709449        -0.980245        -1.750442
 C         1.726819         0.449200        -0.812632
 C         2.929327         0.657067         0.145863
 O         3.523542         0.005319         1.281704
 C         2.848242         2.188105        -0.052313
 H         0.318181         3.014599        -0.758512
 H         1.213532         3.944107        -2.028530
 H         0.209845         2.578115        -2.545206
 H         2.665017         0.855374        -3.214727
 H         3.970116         1.976417        -2.531208
 H         4.674520        -1.000290        -1.626444
 H         0.766097         0.007451        -0.709560
 H         3.420355        -0.986178         1.245428
 H         2.090672         2.657817         0.625867
 H         3.841699         2.823498        -0.327221
