19
Iteration:  4244charge 0 multiplicity 1
 C         0.848600         2.863014        -1.696175
 C         1.978598         1.953918        -1.410253
 C         3.084958         1.435612        -2.321908
 C         3.144019         0.195336        -1.385392
 O         3.966355        -0.952578        -1.569218
 C         1.756156         0.414425        -0.824123
 C         2.984017         0.713568         0.012696
 O         3.301200         0.007522         1.235841
 C         2.823540         2.187676         0.017408
 H         0.131296         2.929737        -0.886413
 H         1.238222         3.773273        -2.084504
 H         0.276224         2.560579        -2.534567
 H         2.751541         1.362573        -3.381515
 H         4.043395         1.855715        -2.438088
 H         3.738776        -1.213456        -2.501866
 H         0.829103        -0.144506        -0.556966
 H         3.883536        -0.713591         0.954741
 H         2.045340         2.454443         0.732065
 H         3.583653         3.023634        -0.044140
