19
Iteration:  3580charge 0 multiplicity 1
 C         0.907579         2.938755        -1.760197
 C         1.915597         1.882711        -1.365430
 C         3.042018         1.390195        -2.349554
 C         3.119100         0.186181        -1.349154
 O         3.896689        -0.974951        -1.669176
 C         1.704431         0.484644        -0.825281
 C         2.849229         0.749906         0.084611
 O         3.528970        -0.081164         1.143596
 C         2.750857         2.213556         0.056767
 H         0.127456         3.115155        -0.935416
 H         1.348164         3.975485        -1.804891
 H         0.464408         2.930478        -2.798389
 H         2.652507         0.940655        -3.328286
 H         3.981775         2.085048        -2.418092
 H         4.274731        -1.369015        -0.875277
 H         0.924523        -0.313291        -0.656238
 H         4.468320        -0.003027         1.004137
 H         2.080120         2.420003         1.031560
 H         3.634587         2.887888        -0.095210
