19
Iteration:  3109charge 0 multiplicity 1
 C         0.816879         2.925500        -1.757174
 C         1.965415         1.933578        -1.308318
 C         3.042694         1.476362        -2.329978
 C         3.112230         0.163767        -1.445113
 O         3.868499        -1.015615        -1.543745
 C         1.754458         0.433647        -0.875560
 C         2.990179         0.744420         0.026877
 O         3.503900        -0.114791         0.998925
 C         2.823200         2.239095         0.098743
 H         0.062633         3.104364        -0.922317
 H         1.274554         3.862760        -1.968742
 H         0.344675         2.739872        -2.723135
 H         2.409881         1.317763        -3.234607
 H         3.830018         2.181086        -2.264662
 H         3.945580        -1.278869        -0.570990
 H         1.025783        -0.282842        -0.628628
 H         3.201643        -0.025472         1.902275
 H         2.463065         2.547270         1.045607
 H         3.667411         2.843554        -0.224980
