19
Iteration:  4674
 C         0.842520         2.861069        -1.865320
 C         1.928122         1.929849        -1.223291
 C         3.073955         1.520191        -2.271234
 C         3.193288         0.206813        -1.360341
 O         3.822294        -1.065865        -1.641211
 C         1.757027         0.385628        -0.899356
 C         2.931456         0.725453         0.086231
 O         3.526197        -0.044071         1.114582
 C         2.780222         2.206632         0.103070
 H        -0.043239         3.064663        -1.234148
 H         1.190142         3.896332        -1.794720
 H         0.557236         2.693198        -2.941453
 H         2.728237         1.270932        -3.305426
 H         3.926571         2.315524        -2.446595
 H         4.821485        -0.902107        -1.729464
 H         0.793763        -0.244786        -1.087281
 H         2.835774         0.125825         1.838465
 H         2.117553         2.558454         0.880971
 H         3.658913         2.868549         0.030787
