19
Iteration:  4993charge 0 multiplicity 1
 C         0.852497         2.885262        -1.722174
 C         1.917115         1.880805        -1.324581
 C         3.117556         1.493494        -2.275883
 C         3.175543         0.218776        -1.394728
 O         3.880512        -1.068678        -1.735712
 C         1.834809         0.409891        -0.797607
 C         2.951786         0.734639         0.107387
 O         3.408282        -0.006367         1.152384
 C         2.651765         2.239189        -0.027555
 H         0.092500         2.941975        -0.957943
 H         1.174284         3.892603        -2.018102
 H         0.237099         2.647803        -2.612547
 H         2.758395         1.231849        -3.272733
 H         3.935857         2.231008        -2.372607
 H         4.216426        -1.401344        -0.870161
 H         1.138084        -0.389463        -0.596791
 H         4.407997        -0.005919         1.164757
 H         2.051763         2.681341         0.785515
 H         3.587387         2.948092        -0.079859
