19
Iteration:  4354
 C         0.929268         2.824211        -1.835420
 C         1.946613         1.938968        -1.299293
 C         3.150054         1.396556        -2.308327
 C         3.111860         0.244318        -1.402232
 O         3.887583        -0.872579        -1.624400
 C         1.807213         0.391867        -0.823886
 C         2.962137         0.730085         0.098599
 O         3.423897        -0.093975         1.183077
 C         2.686969         2.195363         0.041573
 H        -0.040843         2.787732        -1.204227
 H         1.282446         3.866463        -1.893045
 H         0.582895         2.440293        -2.795803
 H         2.520322         1.240931        -3.304132
 H         3.855614         2.231503        -2.399825
 H         3.487512        -1.165185        -2.506737
 H         1.077370        -0.338452        -0.738220
 H         3.669979         0.542237         1.921427
 H         2.021634         2.453034         0.822710
 H         3.674058         2.673695         0.131535
