19
Iteration:  3793
 C         0.888531         2.809870        -1.707194
 C         1.968884         1.940722        -1.319700
 C         3.103839         1.392461        -2.329793
 C         3.129308         0.209523        -1.428098
 O         3.865589        -0.930573        -1.669830
 C         1.794154         0.345910        -0.821594
 C         2.931798         0.810080         0.069370
 O         3.346848        -0.125101         1.133664
 C         2.802056         2.356865        -0.008337
 H         0.350359         3.134432        -0.752429
 H         1.214471         3.861318        -2.094546
 H         0.142884         2.210158        -2.297250
 H         2.651254         1.053388        -3.329794
 H         3.882014         2.118211        -2.534772
 H         3.922746        -1.585864        -0.921695
 H         0.873791        -0.147744        -0.604545
 H         4.243569         0.117829         1.451976
 H         2.265992         2.793212         0.847425
 H         3.864608         2.875300        -0.030270
