19
Iteration:  3558
 C         0.905297         2.953238        -1.791934
 C         1.981490         1.933991        -1.265821
 C         3.087236         1.392362        -2.269762
 C         3.193704         0.230679        -1.333761
 O         3.723982        -0.952627        -1.661067
 C         1.782313         0.329559        -0.790873
 C         2.991130         0.755700         0.065628
 O         3.508930        -0.093102         1.077744
 C         2.686640         2.207845        -0.036634
 H         0.014697         2.988271        -1.052548
 H         1.075590         4.056194        -1.943297
 H         0.574476         2.610917        -2.817767
 H         2.520888         1.222316        -3.226391
 H         3.911016         2.192658        -2.348703
 H         4.199932        -1.324261        -0.857737
 H         0.858035        -0.309546        -0.869951
 H         4.389009         0.075446         1.528061
 H         1.886340         2.580346         0.785036
 H         3.546609         2.919518        -0.170058
