19
Iteration:  1575charge 0 multiplicity 1
 C         0.900233         2.900337        -1.842325
 C         1.861550         1.915870        -1.262202
 C         3.036315         1.457985        -2.233318
 C         3.152840         0.191817        -1.411123
 O         3.759585        -1.039862        -1.699960
 C         1.769727         0.421297        -0.777762
 C         3.085373         0.771799         0.056820
 O         3.545936        -0.135648         1.067635
 C         2.687230         2.258804         0.040121
 H         0.078833         3.159206        -1.152485
 H         1.323671         3.911368        -2.074707
 H         0.521371         2.514869        -2.832693
 H         2.766262         1.494018        -3.222440
 H         3.796458         2.192916        -2.083229
 H         4.149780        -1.395838        -0.865863
 H         0.982496        -0.185140        -0.489259
 H         4.224948         0.493362         1.461473
 H         2.113302         2.465684         0.985975
 H         3.470161         3.056670         0.156734
