19
Iteration:   458
 C         0.871139         2.909835        -1.805618
 C         1.840755         1.946903        -1.224947
 C         3.091495         1.453961        -2.232023
 C         3.168459         0.198040        -1.465703
 O         3.816828        -1.018242        -1.747329
 C         1.803964         0.366806        -0.741539
 C         2.930476         0.716333         0.058760
 O         3.589466        -0.029785         1.049407
 C         2.712614         2.207060         0.036635
 H        -0.101632         2.999501        -1.280514
 H         1.297923         3.884673        -2.154420
 H         0.534393         2.477225        -2.819132
 H         2.720884         1.612853        -3.263755
 H         4.105305         2.079870        -1.999536
 H         4.164579        -1.396746        -0.956026
 H         0.890549        -0.159324        -0.232354
 H         3.301099         0.358000         1.885406
 H         2.097741         2.473587         0.905199
 H         3.702962         2.771552         0.180254
