19
Iteration:   257charge 0 multiplicity 1
 C         0.902921         2.800733        -1.706647
 C         2.038345         2.014892        -1.275126
 C         3.067137         1.447366        -2.394225
 C         3.154593         0.258834        -1.425667
 O         3.773131        -0.962707        -1.600393
 C         1.699144         0.406420        -0.813599
 C         2.876150         0.663986         0.044623
 O         3.596749         0.061905         1.011640
 C         2.766409         2.109882         0.094284
 H         0.126596         2.944633        -0.905280
 H         1.165550         3.808875        -2.070997
 H         0.449448         2.227082        -2.527128
 H         2.522984         1.175114        -3.367706
 H         3.986452         2.075164        -2.752882
 H         4.489134        -1.098048        -0.885881
 H         0.794583        -0.028496        -0.818614
 H         2.988298        -0.182914         1.689508
 H         2.083289         2.281507         0.885504
 H         3.663134         2.715092         0.500258
