19
Iteration:   479charge 0 multiplicity 1
 C         0.911612         2.906127        -1.786996
 C         1.957673         1.912776        -1.267858
 C         3.005824         1.405392        -2.245974
 C         3.134582         0.164027        -1.386695
 O         3.848810        -0.947481        -1.681944
 C         1.725630         0.476812        -0.806871
 C         3.035503         0.668155         0.024283
 O         3.621153        -0.024255         1.025699
 C         2.638078         2.246102         0.080345
 H         0.198058         2.969384        -0.915671
 H         1.465572         3.871065        -2.001717
 H         0.396226         2.605150        -2.784834
 H         2.506486         1.167748        -3.195233
 H         3.879305         2.052001        -2.319109
 H         4.156509        -1.576004        -1.015074
 H         0.886262        -0.366309        -0.695063
 H         2.966120        -0.056592         1.733370
 H         2.020257         2.370393         0.919418
 H         3.347544         3.086297         0.060181
