19
Iteration:  3085
 C         0.876168         2.889053        -1.747922
 C         2.028473         1.947445        -1.258520
 C         3.055416         1.451205        -2.387615
 C         3.259608         0.276597        -1.371755
 O         3.695270        -0.992093        -1.590418
 C         1.720244         0.474624        -0.796361
 C         2.997964         0.702553         0.057686
 O         3.577045        -0.085219         1.025239
 C         2.748851         2.198391         0.036291
 H         0.031503         2.988356        -1.092784
 H         1.163894         3.840664        -2.203534
 H         0.531651         2.352388        -2.668963
 H         2.374386         1.191788        -3.178048
 H         3.982476         2.034862        -2.493916
 H         4.306347        -1.197448        -0.848036
 H         0.805628        -0.069629        -0.828852
 H         3.027828        -0.575127         1.650073
 H         2.032137         2.264199         0.783835
 H         3.393249         3.056663         0.155556
