19
Iteration:  3695charge 0 multiplicity 1
 C         0.804308         2.843922        -1.821883
 C         1.972059         1.998691        -1.295535
 C         3.138542         1.436629        -2.217325
 C         3.093428         0.236293        -1.448184
 O         3.812134        -1.035738        -1.741889
 C         1.712849         0.392561        -0.784173
 C         3.013128         0.716988         0.077796
 O         3.506853        -0.067127         1.201677
 C         2.737118         2.262618         0.036090
 H         0.049711         3.091426        -1.046952
 H         1.224491         3.892811        -2.123811
 H         0.563174         2.433204        -2.817375
 H         2.930729         1.138941        -3.296213
 H         4.039031         2.080280        -2.216108
 H         3.625315        -1.508431        -0.895741
 H         0.795573        -0.217112        -0.964137
 H         4.422046         0.243948         1.367222
 H         2.210622         2.687647         0.895550
 H         3.613028         3.071229        -0.201956
