19
Iteration:  1103charge 0 multiplicity 1
 C         0.875957         2.852300        -1.791061
 C         1.988525         1.929436        -1.384687
 C         3.044886         1.459039        -2.390353
 C         3.132208         0.180842        -1.355161
 O         3.786324        -0.933938        -1.550289
 C         1.726257         0.450921        -0.804189
 C         2.984916         0.767977         0.143009
 O         3.691469        -0.135371         1.028991
 C         2.624882         2.233373         0.064378
 H         0.015136         3.096550        -1.067045
 H         1.419988         3.786896        -2.113853
 H         0.458899         2.509550        -2.737133
 H         2.433180         1.077873        -3.273182
 H         3.894791         1.994004        -2.567940
 H         4.655070        -1.008422        -1.132117
 H         0.811924        -0.260974        -0.708700
 H         3.093559        -0.393542         1.752720
 H         1.810161         2.631736         0.852622
 H         3.477968         3.112232         0.167640
