19
Iteration:  3655charge 0 multiplicity 1
 C         0.853182         2.767297        -1.778062
 C         2.025839         1.924174        -1.269682
 C         3.098115         1.405198        -2.373215
 C         3.163313         0.254593        -1.366062
 O         3.775731        -0.918266        -1.745268
 C         1.813719         0.471550        -0.778885
 C         3.051395         0.729003         0.060192
 O         3.319000        -0.065835         1.183088
 C         2.800007         2.314035         0.065921
 H         0.212339         3.067142        -0.886991
 H         0.911225         3.691058        -2.281557
 H         0.242525         2.038717        -2.357406
 H         2.680186         1.263686        -3.371128
 H         4.135915         1.792698        -2.521022
 H         3.828030        -1.593386        -1.038726
 H         1.007735        -0.269309        -0.779909
 H         4.250485        -0.371315         1.256940
 H         2.134022         2.764707         0.883209
 H         3.649308         2.905154        -0.014136
