19
Iteration:  1406
 C         0.904885         2.884071        -1.833452
 C         1.983232         1.973679        -1.274137
 C         3.028213         1.387432        -2.323086
 C         3.093730         0.179184        -1.400625
 O         3.749496        -1.043235        -1.597483
 C         1.789688         0.454086        -0.812411
 C         2.957532         0.732356         0.131862
 O         3.632437         0.064010         1.001593
 C         2.647645         2.197117         0.143615
 H         0.117236         2.915352        -1.025052
 H         1.360131         3.837580        -2.106213
 H         0.347423         2.495154        -2.691126
 H         2.530075         1.003341        -3.158337
 H         3.837430         2.043480        -2.506819
 H         4.698268        -0.754850        -1.429479
 H         0.934614        -0.041814        -0.633161
 H         3.886060        -0.837661         0.729793
 H         1.913932         2.524670         0.906795
 H         3.641911         2.716714         0.485260
