19
Iteration:   587
 C         0.871044         2.813009        -1.799876
 C         1.896572         1.872367        -1.328880
 C         3.051038         1.499372        -2.290088
 C         3.274680         0.356581        -1.331544
 O         3.743102        -0.944544        -1.762702
 C         1.781639         0.464606        -0.794674
 C         2.937011         0.654574         0.127157
 O         3.593354        -0.028830         1.133790
 C         2.776872         2.159355         0.040863
 H         0.022196         3.019324        -1.120317
 H         1.197238         3.818920        -2.014297
 H         0.366040         2.393725        -2.715169
 H         2.670007         0.995655        -3.212797
 H         3.966040         2.019070        -2.573340
 H         3.796514        -1.420670        -0.913958
 H         0.947677        -0.372647        -0.815302
 H         2.945806        -0.117665         1.893234
 H         2.158289         2.669738         0.815826
 H         3.727371         2.661395        -0.143080
