19
Iteration:  4934charge 0 multiplicity 1
 C         0.917255         2.965571        -1.813392
 C         1.950990         1.921693        -1.326209
 C         3.031734         1.352264        -2.280793
 C         3.103706         0.169475        -1.360348
 O         3.964517        -0.856028        -1.577896
 C         1.640364         0.378287        -0.722151
 C         2.879496         0.707115         0.095126
 O         3.598667        -0.102150         0.926794
 C         2.697981         2.269706         0.000201
 H         0.282450         3.180903        -0.917023
 H         1.313399         3.913526        -2.138691
 H         0.362586         2.378320        -2.581771
 H         2.781015         0.882197        -3.273918
 H         4.003560         1.963911        -2.366115
 H         4.391444        -0.937936        -0.697772
 H         0.705229        -0.116120        -0.482752
 H         3.036395        -0.527002         1.562671
 H         2.041777         2.619755         0.798213
 H         3.657524         2.732437         0.013883
