19
Iteration:  1935
 C         0.870787         2.804538        -1.901010
 C         1.944047         1.984177        -1.217444
 C         3.121722         1.486843        -2.243866
 C         3.096784         0.205231        -1.397246
 O         3.713123        -1.033015        -1.690943
 C         1.731182         0.499430        -0.751987
 C         3.067080         0.704316         0.019565
 O         3.625137        -0.085621         1.017094
 C         2.741787         2.235550         0.129908
 H        -0.082067         2.714156        -1.313448
 H         0.935422         3.939633        -1.838632
 H         0.414868         2.475112        -2.924710
 H         2.795050         1.712579        -3.291355
 H         4.086633         2.004656        -2.151174
 H         4.308870        -1.074070        -0.955642
 H         0.953083        -0.144661        -0.407423
 H         2.966188        -0.235911         1.759355
 H         1.916971         2.411458         0.881172
 H         3.657839         2.975444        -0.022353
