19
Iteration:   326
 C         0.874830         2.848207        -1.752487
 C         1.990902         1.932224        -1.220828
 C         2.982039         1.383578        -2.329837
 C         3.124852         0.211642        -1.414903
 O         3.869762        -0.870095        -1.680234
 C         1.697460         0.430767        -0.823412
 C         3.029154         0.691630         0.053912
 O         3.567334        -0.080162         1.074147
 C         2.777759         2.200607         0.057915
 H         0.072787         3.091674        -1.068669
 H         1.428076         3.745555        -1.959797
 H         0.552144         2.378021        -2.689283
 H         2.414063         1.230593        -3.271377
 H         3.982791         1.955142        -2.606648
 H         4.114744        -1.339982        -0.897721
 H         0.658121        -0.089900        -0.553876
 H         2.840386        -0.049472         1.702981
 H         2.007423         2.630345         0.779496
 H         3.462095         3.192260         0.030111
