19
Iteration:  4192charge 0 multiplicity 1
 C         0.893454         2.932252        -1.870992
 C         1.970092         1.987546        -1.348272
 C         3.064851         1.436859        -2.278950
 C         3.159383         0.204124        -1.416371
 O         3.877967        -0.919375        -1.564695
 C         1.778777         0.480409        -0.795062
 C         3.029477         0.677425         0.073217
 O         3.451878        -0.153677         1.148728
 C         2.705493         2.157193         0.078786
 H        -0.007543         2.797722        -1.197588
 H         1.123719         4.004033        -2.024961
 H         0.469176         2.417442        -2.795454
 H         2.602952         0.911645        -3.141933
 H         3.865829         2.251646        -2.622153
 H         3.343487        -1.596042        -2.087485
 H         0.902240        -0.096533        -0.513981
 H         4.074786         0.419246         1.660150
 H         1.874560         2.466851         0.721069
 H         3.501935         3.006433        -0.024974
