19
Iteration:  4607
 C         0.857836         2.894301        -1.785908
 C         1.936842         1.981752        -1.280727
 C         3.068154         1.518741        -2.247831
 C         3.172405         0.215015        -1.351666
 O         3.928423        -0.996061        -1.576503
 C         1.692984         0.286117        -0.893623
 C         2.935667         0.697005         0.031530
 O         3.474125        -0.021104         0.976872
 C         2.791513         2.243762         0.053561
 H         0.224196         3.294025        -0.916591
 H         1.315807         3.814342        -2.181976
 H         0.282781         2.379238        -2.606911
 H         2.583027         1.280394        -3.204696
 H         4.088104         2.095989        -2.418127
 H         4.179054        -1.371748        -0.737364
 H         0.899925        -0.402935        -0.734369
 H         2.820400        -0.200798         1.637892
 H         2.201358         2.471579         0.932876
 H         3.743699         2.801343         0.128538
