19
Iteration:  4724
 C         0.843838         2.738039        -1.720613
 C         1.992001         1.968770        -1.362600
 C         3.095865         1.441102        -2.257896
 C         3.293938         0.193470        -1.338393
 O         3.862571        -0.976586        -1.810786
 C         1.815046         0.487621        -0.892476
 C         2.892667         0.810199         0.119760
 O         3.406870        -0.080203         1.155317
 C         2.752629         2.300394         0.073253
 H         0.244717         2.868235        -0.803662
 H         0.968974         3.799877        -1.966926
 H         0.276268         2.235376        -2.479608
 H         2.585656         1.101731        -3.172489
 H         4.059541         1.809231        -2.554789
 H         3.889506        -1.651447        -1.129912
 H         1.022948        -0.231919        -0.979969
 H         2.905239         0.288739         1.901779
 H         1.982400         2.616701         0.842205
 H         3.768320         2.727665        -0.011376
