19
Iteration:   511
 C         0.852273         2.913008        -1.717821
 C         1.949251         1.953261        -1.338662
 C         3.000598         1.412307        -2.418786
 C         3.129873         0.224510        -1.387000
 O         3.866410        -0.888613        -1.588891
 C         1.819132         0.373089        -0.833049
 C         2.862372         0.667870         0.143621
 O         3.576288        -0.115266         1.073557
 C         2.805616         2.274116         0.025360
 H         0.164550         3.152822        -0.838050
 H         1.227021         3.944847        -2.005500
 H         0.086435         2.577053        -2.515761
 H         2.503228         1.172449        -3.381215
 H         3.770728         2.045932        -2.635382
 H         4.339083        -1.230009        -0.804805
 H         1.011767        -0.538412        -0.897735
 H         2.933025        -0.502558         1.688251
 H         2.329745         2.853974         0.773911
 H         3.767811         2.695264        -0.206785
