19
Iteration:   388
 C         0.826735         2.841430        -1.641724
 C         1.953315         1.908849        -1.267874
 C         3.046972         1.483058        -2.293842
 C         3.177416         0.187585        -1.450113
 O         3.782159        -1.059593        -1.590236
 C         1.841934         0.404053        -0.836023
 C         3.094957         0.747593        -0.044721
 O         3.437996        -0.005573         1.084441
 C         2.786545         2.268768         0.003354
 H         0.117181         3.053038        -0.777684
 H         1.211352         3.828681        -1.998840
 H         0.139980         2.557178        -2.470353
 H         2.783707         1.498666        -3.355910
 H         3.861877         2.091600        -2.085009
 H         4.683934        -0.928074        -1.364377
 H         1.035187        -0.277698        -0.677005
 H         2.653518        -0.528599         1.245352
 H         2.071753         2.520844         0.748349
 H         3.428241         3.052381        -0.184116
