19
Iteration:  2567charge 0 multiplicity 1
 C         0.948267         2.934040        -1.839763
 C         1.938323         1.898827        -1.274869
 C         3.038110         1.395853        -2.248089
 C         3.064088         0.188780        -1.397116
 O         3.798711        -0.919060        -1.718972
 C         1.728462         0.443140        -0.784188
 C         2.894959         0.756154         0.138087
 O         3.688250        -0.101206         1.023602
 C         2.762509         2.226630         0.062664
 H         0.327676         3.344713        -1.016487
 H         1.466134         3.700437        -2.445779
 H         0.190456         2.458114        -2.431986
 H         2.408545         1.035889        -3.130495
 H         3.997817         2.009905        -2.248264
 H         3.559822        -1.590589        -1.011613
 H         0.847221        -0.264992        -0.688922
 H         3.336315        -0.024261         1.913537
 H         2.053634         2.746017         0.817634
 H         3.772244         2.715192         0.095692
