19
Iteration:  4466charge 0 multiplicity 1
 C         0.896483         2.815906        -1.912093
 C         1.917895         1.887360        -1.214358
 C         3.099020         1.542574        -2.290271
 C         3.112922         0.273773        -1.448742
 O         3.868733        -0.913957        -1.451354
 C         1.780509         0.420393        -0.813534
 C         2.983199         0.639032         0.004955
 O         3.466108        -0.021201         1.115886
 C         2.697747         2.188792         0.077139
 H         0.167794         3.086451        -1.134036
 H         1.222349         3.843277        -2.035329
 H         0.559406         2.350298        -2.869220
 H         2.871097         1.267822        -3.384071
 H         3.895930         2.273482        -2.201730
 H         3.945999        -1.256571        -2.377242
 H         0.962465        -0.281459        -0.667062
 H         3.930520        -0.838833         0.929761
 H         1.950962         2.316462         0.851543
 H         3.520784         2.919334         0.050109
