19
Iteration:   707
 C         0.837981         2.784933        -1.621253
 C         1.970610         1.913538        -1.296837
 C         3.136709         1.338270        -2.357477
 C         3.131388         0.190231        -1.348529
 O         3.868383        -0.859437        -1.677646
 C         1.706124         0.471974        -0.857899
 C         3.031043         0.758623         0.041577
 O         3.468777        -0.057237         1.073409
 C         2.791548         2.295974        -0.018621
 H         0.220558         2.973100        -0.778054
 H         1.124773         3.688719        -1.981335
 H         0.145349         2.444764        -2.420532
 H         2.714015         0.837829        -3.275289
 H         4.169988         1.658479        -2.413477
 H         4.125254        -1.564096        -0.987772
 H         0.810930         0.080127        -0.666250
 H         2.741143        -0.328462         1.602787
 H         2.011924         2.608934         0.796726
 H         3.524902         3.157724        -0.090625
