19
Iteration:   169
 C         0.837929         2.853936        -1.688132
 C         1.973211         1.981136        -1.258011
 C         3.015959         1.458409        -2.368606
 C         3.128264         0.232090        -1.423199
 O         3.926322        -0.978159        -1.625334
 C         1.709008         0.477502        -0.841675
 C         2.900219         0.673243        -0.022775
 O         3.562646        -0.026696         1.085007
 C         2.779203         2.063714         0.019161
 H         0.088992         3.065346        -0.910809
 H         1.175929         3.830669        -2.050238
 H         0.276318         2.345723        -2.468300
 H         2.636760         1.365559        -3.413911
 H         3.970126         1.990340        -2.573486
 H         4.160194        -1.287560        -0.691238
 H         0.805606         0.019424        -0.489152
 H         3.314216         0.510786         1.820192
 H         2.186142         2.498980         0.822786
 H         3.682229         2.778604         0.205829
