19
Iteration:  3860
 C         0.903609         2.886298        -1.877421
 C         1.981312         1.841802        -1.330337
 C         3.153056         1.473957        -2.243032
 C         3.073432         0.170266        -1.341120
 O         3.795561        -0.925963        -1.757130
 C         1.686764         0.405123        -0.665416
 C         2.960997         0.723129         0.105558
 O         3.503614        -0.070011         1.127708
 C         2.753948         2.224805         0.014430
 H         0.095305         2.994322        -1.049587
 H         1.219285         3.988048        -2.004311
 H         0.489611         2.394028        -2.802906
 H         2.933300         1.316288        -3.329227
 H         4.028267         2.142056        -2.256177
 H         3.800460        -1.514951        -0.999750
 H         0.767959        -0.178666        -0.632971
 H         4.342326         0.408493         1.063548
 H         2.180170         2.504981         0.892310
 H         3.434763         3.096864        -0.145186
