19
Iteration:  2862charge 0 multiplicity 1
 C         0.873512         2.887059        -1.728476
 C         1.997110         1.957384        -1.360585
 C         3.079531         1.424333        -2.326589
 C         3.090930         0.248313        -1.372084
 O         3.697836        -0.993096        -1.759619
 C         1.754630         0.419942        -0.797578
 C         2.916565         0.609756         0.103423
 O         3.525214         0.060067         1.279120
 C         2.864277         2.181980        -0.022264
 H         0.285837         3.120578        -0.822063
 H         1.340942         3.887482        -2.028358
 H         0.251534         2.500094        -2.514431
 H         2.716570         1.246052        -3.315008
 H         3.912530         2.077943        -2.623519
 H         4.637914        -0.829349        -1.501578
 H         0.738450        -0.125816        -0.823811
 H         3.583023        -0.913795         1.158195
 H         2.404493         2.419658         0.926725
 H         3.872605         2.729114        -0.096507
