19
Iteration:  2107charge 0 multiplicity 1
 C         0.865586         2.902131        -1.745970
 C         1.893372         1.910640        -1.353457
 C         3.159670         1.475092        -2.240791
 C         3.158770         0.239907        -1.326017
 O         3.710184        -1.029702        -1.704492
 C         1.759100         0.463256        -0.766431
 C         2.920191         0.743804         0.090993
 O         3.702602        -0.120800         1.030408
 C         2.676858         2.264624         0.002741
 H         0.089139         2.755433        -0.945569
 H         1.200145         4.005588        -1.943722
 H         0.463891         2.624880        -2.735060
 H         2.939071         1.035063        -3.301170
 H         4.098070         2.121415        -2.371760
 H         4.138904        -1.286082        -0.886100
 H         0.945850        -0.116555        -0.845634
 H         3.190512        -0.298459         1.833112
 H         1.767679         2.600575         0.727169
 H         3.602990         2.896584        -0.067545
