19
Iteration:  3305
 C         0.992299         2.888935        -1.710578
 C         1.976906         1.928055        -1.294551
 C         2.949978         1.355058        -2.356030
 C         3.132927         0.212013        -1.397089
 O         3.953792        -0.895164        -1.678046
 C         1.729625         0.458529        -0.815154
 C         2.889472         0.696576         0.072193
 O         3.346750        -0.001181         1.073626
 C         2.824212         2.127776         0.035740
 H         0.303031         3.033469        -0.788353
 H         1.306699         3.892493        -1.978985
 H         0.376465         2.511260        -2.555627
 H         2.424435         1.090284        -3.273682
 H         3.815447         1.994965        -2.576186
 H         4.300037        -1.291696        -0.877228
 H         0.934261        -0.260106        -0.461127
 H         4.247886         0.090093         1.361647
 H         2.011510         2.424438         0.732511
 H         3.760909         2.781169         0.282731
