19
Iteration:  1318charge 0 multiplicity 1
 C         0.822262         2.769047        -1.687754
 C         2.039554         1.916999        -1.326741
 C         3.092407         1.380544        -2.464486
 C         3.214558         0.262128        -1.367141
 O         3.703721        -0.957004        -1.736816
 C         1.797088         0.455882        -0.794404
 C         2.930779         0.707080         0.059909
 O         3.469849         0.086756         1.312555
 C         2.802818         2.188225        -0.006295
 H         0.127691         2.742955        -0.786659
 H         1.036311         3.822530        -1.877891
 H         0.180560         2.385525        -2.537288
 H         2.614891         1.064028        -3.355929
 H         4.000286         1.964118        -2.612627
 H         4.664650        -0.843957        -1.691735
 H         0.819271        -0.069558        -0.706683
 H         3.791655        -0.783369         1.100156
 H         2.083609         2.599912         0.730559
 H         3.745776         2.815453         0.191204
