19
Iteration:   914charge 0 multiplicity 1
 C         0.870500         2.939182        -1.806221
 C         1.877295         1.985183        -1.255929
 C         2.955601         1.491719        -2.307893
 C         3.214652         0.183771        -1.361123
 O         3.893058        -1.032290        -1.639778
 C         1.765032         0.355752        -0.812918
 C         2.999027         0.699513         0.003650
 O         3.528098         0.020135         1.049012
 C         2.761547         2.143531         0.035896
 H         0.294938         3.284680        -0.936145
 H         1.425810         3.817708        -2.073608
 H         0.254114         2.479359        -2.663051
 H         2.624407         1.227867        -3.286655
 H         3.810623         2.101537        -2.301107
 H         4.167365        -1.300898        -0.716806
 H         0.895108        -0.487846        -0.570334
 H         2.969842         0.317592         1.824786
 H         2.069241         2.386254         0.828563
 H         3.671505         2.708934         0.008867
