19
Iteration:  4453
 C         0.836565         2.853895        -1.837553
 C         1.896008         1.981514        -1.291634
 C         3.051409         1.537704        -2.298883
 C         3.220651         0.271014        -1.419957
 O         3.905573        -0.955418        -1.426344
 C         1.751299         0.385472        -0.871261
 C         2.986194         0.720697         0.051187
 O         3.449650        -0.034577         1.130045
 C         2.757089         2.133007         0.076251
 H        -0.203277         2.934885        -1.395374
 H         1.386243         3.649339        -2.305586
 H         0.419334         2.343561        -2.729306
 H         2.603944         1.625826        -3.275016
 H         3.997538         2.048028        -2.307148
 H         4.055191        -1.264807        -2.319054
 H         0.911258        -0.416514        -0.781614
 H         3.485316        -0.930351         0.681496
 H         2.275708         2.436175         0.940636
 H         3.636202         2.748559        -0.028264
