19
Iteration:  2598charge 0 multiplicity 1
 C         0.964194         2.922456        -1.796213
 C         1.921713         1.920714        -1.265979
 C         3.021866         1.427454        -2.199518
 C         3.065072         0.164911        -1.426459
 O         3.774529        -1.000461        -1.735103
 C         1.698999         0.457832        -0.781851
 C         3.029936         0.680445         0.014167
 O         3.633362         0.029594         1.073310
 C         2.784262         2.194185         0.070926
 H         0.145854         3.029096        -0.993994
 H         1.446304         3.857555        -2.152346
 H         0.517930         2.436314        -2.726550
 H         2.527781         1.313562        -3.205036
 H         3.892761         2.160771        -2.386253
 H         3.818301        -1.458299        -0.899203
 H         0.883346        -0.247680        -0.387197
 H         2.922945         0.119219         1.761758
 H         1.977918         2.310151         0.767693
 H         3.755270         2.724403         0.037797
