19
Iteration:  1818charge 0 multiplicity 1
 C         0.896003         2.880650        -1.774038
 C         1.950070         1.929122        -1.327674
 C         2.992886         1.390259        -2.373356
 C         3.157131         0.248288        -1.307517
 O         3.840514        -0.853876        -1.682901
 C         1.728290         0.469380        -0.757512
 C         2.978408         0.721642         0.168223
 O         3.555909        -0.211084         1.090478
 C         2.793398         2.240933        -0.045922
 H         0.081757         3.176493        -1.081275
 H         1.376986         3.884946        -1.798679
 H         0.210290         2.816417        -2.640391
 H         2.805861         0.968411        -3.378580
 H         3.826694         2.173212        -2.652002
 H         4.003451        -1.368518        -0.896326
 H         0.973543        -0.207198        -0.613239
 H         2.898601        -0.487436         1.719488
 H         2.063023         2.633628         0.703037
 H         3.709352         2.810822        -0.254826
