19
Iteration:  4852charge 0 multiplicity 1
 C         0.773019         2.754908        -1.732931
 C         2.009512         1.987727        -1.374202
 C         3.175050         1.476592        -2.215706
 C         3.185208         0.167380        -1.320047
 O         3.765074        -1.027231        -1.723336
 C         1.773659         0.462687        -0.842571
 C         3.003304         0.731548         0.050237
 O         3.422114        -0.011814         1.197695
 C         2.770625         2.203700        -0.072989
 H         0.097876         2.599637        -0.881921
 H         1.084266         3.853046        -1.833309
 H         0.168920         2.432096        -2.605958
 H         2.975229         1.457772        -3.330982
 H         4.140142         2.061551        -2.108085
 H         4.508868        -0.825038        -2.338838
 H         0.936039        -0.210682        -0.508867
 H         3.408382         0.347406         2.104539
 H         1.960136         2.582616         0.572580
 H         3.676970         2.831759         0.055351
