19
Iteration:  2923charge 0 multiplicity 1
 C         0.867756         2.941677        -1.794503
 C         1.993260         1.999830        -1.313805
 C         3.133210         1.356831        -2.347257
 C         3.150025         0.265640        -1.325167
 O         3.628211        -0.943050        -1.541236
 C         1.779844         0.394669        -0.768810
 C         2.962585         0.690590         0.101258
 O         3.604754        -0.115500         1.058520
 C         2.721899         2.271261         0.024266
 H         0.134730         3.177456        -0.952500
 H         1.337116         3.863817        -2.098977
 H         0.382375         2.611059        -2.761005
 H         2.523618         0.861273        -3.155799
 H         4.028596         1.956815        -2.432029
 H         4.439728        -0.815498        -2.113452
 H         0.827527        -0.293744        -0.799327
 H         3.910014        -0.907931         0.631689
 H         2.004672         2.330981         0.953439
 H         3.616558         3.035464         0.167895
