19
Iteration:  1498
 C         0.825591         2.842807        -1.632108
 C         1.983503         1.956291        -1.305352
 C         3.009054         1.433627        -2.351138
 C         3.165093         0.182872        -1.435588
 O         3.968074        -0.965053        -1.612679
 C         1.783855         0.424190        -0.712648
 C         3.030946         0.770323         0.021483
 O         3.263011        -0.031916         1.097370
 C         2.881134         2.224390        -0.033804
 H         0.146905         3.005262        -0.816036
 H         1.156837         3.782159        -2.104168
 H         0.137326         2.434710        -2.373815
 H         2.680661         1.124411        -3.255569
 H         3.844502         2.103846        -2.435376
 H         3.343750        -1.595195        -1.953926
 H         1.001665        -0.323036        -0.331724
 H         4.201141        -0.185094         1.034991
 H         2.124683         2.656204         0.641087
 H         3.756071         2.863685        -0.148639
