19
Iteration:   711
 C         0.860387         2.763340        -1.636605
 C         1.972747         1.889110        -1.307505
 C         3.119925         1.305724        -2.339251
 C         3.128418         0.201369        -1.321927
 O         3.871145        -0.851557        -1.713211
 C         1.725876         0.534865        -0.851466
 C         3.027652         0.750487         0.061447
 O         3.485119        -0.061702         1.082199
 C         2.774268         2.277885        -0.002641
 H         0.178456         2.908421        -0.742824
 H         1.080592         3.820889        -2.111729
 H         0.106714         2.570050        -2.424522
 H         2.840565         0.764286        -3.280023
 H         4.114470         1.817270        -2.510769
 H         3.979327        -1.468095        -1.010204
 H         0.689727        -0.012907        -0.658563
 H         2.700953        -0.362521         1.624492
 H         2.056213         2.711327         0.660391
 H         3.492452         3.120771        -0.063023
