19
Iteration:  4103charge 0 multiplicity 1
 C         0.875826         2.862173        -1.754813
 C         2.029012         1.926325        -1.249670
 C         3.122415         1.438028        -2.328724
 C         3.194423         0.236326        -1.485237
 O         3.895626        -0.943104        -1.530963
 C         1.787227         0.361596        -0.782661
 C         2.914036         0.689211         0.038960
 O         3.395447         0.018473         1.109182
 C         2.789143         2.264239         0.081520
 H         0.017252         2.945469        -0.991198
 H         1.094846         3.800873        -2.286199
 H         0.318280         2.244607        -2.541525
 H         2.640603         1.045779        -3.261346
 H         3.869057         2.222663        -2.732662
 H         3.565652        -1.380340        -2.368990
 H         0.839539        -0.211502        -0.455083
 H         3.124233        -0.935408         1.103282
 H         1.982099         2.610727         0.687891
 H         3.597614         3.050329        -0.006944
