19
Iteration:  2030charge 0 multiplicity 1
 C         0.840371         2.927599        -1.640355
 C         1.951218         1.902560        -1.366199
 C         3.091643         1.366569        -2.337624
 C         3.160489         0.211534        -1.322183
 O         3.862222        -0.871420        -1.687966
 C         1.775169         0.403452        -0.757047
 C         2.939467         0.720949         0.084095
 O         3.471697        -0.115496         1.037733
 C         2.792432         2.267839        -0.055449
 H         0.501460         3.357449        -0.684323
 H         1.411626         3.718860        -2.155221
 H        -0.042142         2.559708        -2.105832
 H         2.840155         1.116429        -3.415427
 H         4.008458         2.038902        -2.344959
 H         4.136306        -1.511854        -0.960981
 H         0.937923        -0.331990        -0.555513
 H         2.865504        -0.270197         1.747282
 H         1.983063         2.607710         0.574549
 H         3.648712         2.827492        -0.349209
