19
Iteration:   702charge 0 multiplicity 1
 C         0.787131         2.810051        -1.621311
 C         1.988237         1.952663        -1.299237
 C         3.139339         1.363536        -2.358377
 C         3.127640         0.194512        -1.387735
 O         3.882588        -0.906876        -1.636051
 C         1.730613         0.399890        -0.853995
 C         3.011804         0.772669         0.016812
 O         3.458155        -0.050617         1.059113
 C         2.794345         2.317028        -0.030278
 H         0.203219         3.060165        -0.680543
 H         1.324942         3.847836        -1.894975
 H         0.250708         2.198358        -2.379501
 H         2.568395         1.126373        -3.250186
 H         4.227290         1.644615        -2.379025
 H         4.196163        -1.468719        -0.962569
 H         0.656124        -0.031458        -0.559960
 H         2.687937        -0.274458         1.657103
 H         2.130369         2.396906         0.821409
 H         3.600121         3.028521        -0.124198
