19
Iteration:  2596
 C         0.968880         2.920407        -1.793229
 C         1.926594         1.934857        -1.255789
 C         3.025628         1.451935        -2.225067
 C         3.052549         0.164540        -1.426302
 O         3.785193        -1.002155        -1.734937
 C         1.679842         0.431223        -0.770453
 C         3.022955         0.690811         0.005170
 O         3.637321         0.029398         1.078942
 C         2.783058         2.197863         0.069969
 H         0.134939         3.045848        -1.018531
 H         1.492209         3.792251        -2.179089
 H         0.514635         2.412931        -2.744796
 H         2.511962         1.299960        -3.160632
 H         3.932949         2.100697        -2.329791
 H         3.769776        -1.479004        -0.887620
 H         0.854501        -0.263640        -0.392797
 H         2.965123         0.117480         1.752061
 H         1.996303         2.244983         0.754163
 H         3.800110         2.721900         0.060063
