19
Iteration:    80
 C         0.855749         2.794499        -1.805640
 C         1.965101         1.903118        -1.269447
 C         3.013641         1.506024        -2.266599
 C         3.149299         0.213304        -1.404151
 O         3.811487        -1.023899        -1.789937
 C         1.762783         0.428872        -0.758427
 C         2.968826         0.753331         0.103313
 O         3.508828         0.042866         1.162356
 C         2.824383         2.207229         0.038260
 H         0.118849         2.790314        -1.042724
 H         1.241288         3.798245        -2.008749
 H         0.429196         2.430751        -2.723543
 H         2.574182         1.253488        -3.275986
 H         3.811703         2.210649        -2.434443
 H         4.507591        -1.294870        -1.126756
 H         0.700871        -0.007705        -0.426060
 H         3.147665        -0.821291         1.152422
 H         2.347973         2.650504         0.861218
 H         3.758846         2.939041         0.033277
