19
Iteration:  2512
 C         0.866964         2.877031        -1.659202
 C         2.051166         1.936818        -1.257398
 C         2.976350         1.483713        -2.347834
 C         3.158581         0.177478        -1.426880
 O         3.790588        -1.029436        -1.585384
 C         1.764841         0.435332        -0.838058
 C         2.948447         0.696786        -0.056313
 O         3.464861         0.002381         1.071435
 C         2.911867         2.204463         0.013224
 H         0.141664         2.987613        -0.843128
 H         0.980695         3.897475        -1.980489
 H         0.374208         2.313736        -2.414344
 H         2.540108         1.234350        -3.368984
 H         3.752835         2.288946        -2.584757
 H         4.551618        -1.111210        -0.942687
 H         0.791011        -0.107418        -0.562262
 H         2.698681        -0.402445         1.562838
 H         2.445022         2.653336         0.919241
 H         3.742388         2.862788        -0.080854
