19
Iteration:  2478charge 0 multiplicity 1
 C         0.854593         2.974270        -1.623615
 C         1.959651         1.932520        -1.414460
 C         3.078480         1.343368        -2.376356
 C         3.184679         0.218284        -1.389629
 O         3.717624        -0.975541        -1.723780
 C         1.769670         0.375858        -0.806252
 C         2.972391         0.753045         0.140218
 O         3.517603        -0.032571         1.191860
 C         2.864865         2.303842        -0.027204
 H         0.128619         2.499277        -0.923402
 H         0.948795         3.997024        -1.596303
 H         0.363763         2.669787        -2.557859
 H         2.761466         0.911643        -3.363765
 H         3.903494         2.139078        -2.484417
 H         4.409837        -1.225112        -1.031586
 H         0.859931        -0.222970        -0.714731
 H         3.035217        -0.869013         1.348319
 H         2.073485         2.623960         0.603116
 H         3.781746         2.725516        -0.185182
