19
Iteration:   595
 C         0.842478         2.849214        -1.851517
 C         1.906800         1.908406        -1.315027
 C         3.062921         1.509006        -2.279437
 C         3.204954         0.235638        -1.368201
 O         3.718204        -0.911561        -1.751439
 C         1.788911         0.379118        -0.749033
 C         2.980567         0.657509         0.077097
 O         3.601688         0.010245         1.136023
 C         2.800023         2.146545         0.096509
 H         0.058633         2.928908        -1.106107
 H         1.341654         3.760964        -2.071456
 H         0.457542         2.515122        -2.799548
 H         2.721845         1.019860        -3.279334
 H         3.956599         2.347861        -2.380899
 H         3.917003        -1.345460        -0.926159
 H         0.961653        -0.488787        -0.912396
 H         2.938451        -0.094192         1.859217
 H         2.020921         2.716240         0.776128
 H         3.712035         2.764379        -0.023125
