19
Iteration:  2255charge 0 multiplicity 1
 C         0.851240         2.877247        -1.748728
 C         1.990750         1.922282        -1.363004
 C         3.149792         1.477777        -2.206408
 C         3.180748         0.246056        -1.273564
 O         3.643209        -1.017103        -1.682079
 C         1.762561         0.426521        -0.867034
 C         2.952740         0.707699         0.076724
 O         3.653720        -0.093039         1.017386
 C         2.661706         2.253311        -0.040910
 H         0.116516         3.053782        -0.924631
 H         1.238783         3.865095        -1.944865
 H         0.179653         2.471649        -2.639573
 H         2.864922         1.197189        -3.212701
 H         4.151001         2.005874        -2.178720
 H         4.506173        -1.097665        -1.134913
 H         0.884783        -0.022750        -0.561494
 H         3.323885        -0.266778         1.960456
 H         2.053062         2.612438         0.871061
 H         3.574353         2.934262         0.080869
