19
Iteration:  4235
 C         0.891427         2.834922        -1.734475
 C         2.021280         1.928990        -1.303874
 C         3.054754         1.460280        -2.299188
 C         3.199461         0.190363        -1.374662
 O         3.925346        -0.934319        -1.563010
 C         1.704082         0.378800        -0.856124
 C         2.970377         0.695705         0.049220
 O         3.298410        -0.008898         1.195689
 C         2.798629         2.247479        -0.110155
 H         0.205930         2.968842        -0.878431
 H         1.270071         3.817883        -1.834981
 H         0.355083         2.386331        -2.565783
 H         2.604092         1.313928        -3.277954
 H         3.895516         2.105306        -2.195921
 H         3.801263        -1.159561        -2.518502
 H         0.784313        -0.067161        -0.574802
 H         4.148035        -0.459441         1.136783
 H         2.122226         2.452333         0.736742
 H         3.790024         2.822596         0.026744
