19
Iteration:  1061
 C         0.822731         2.909463        -1.721077
 C         1.904318         1.927129        -1.227673
 C         3.007513         1.453360        -2.296304
 C         3.111693         0.179449        -1.443138
 O         4.017094        -0.961381        -1.607653
 C         1.663820         0.348366        -0.875199
 C         2.975524         0.710570         0.053012
 O         3.477082        -0.033442         1.063785
 C         2.820346         2.194454        -0.044991
 H         0.263721         3.222482        -0.823798
 H         1.510135         3.688448        -2.162005
 H         0.181253         2.474237        -2.439784
 H         2.787301         1.137261        -3.375209
 H         3.903205         2.095624        -2.436227
 H         3.907979        -1.184127        -0.688774
 H         0.841260        -0.360195        -0.519311
 H         3.322026         0.594855         1.757748
 H         2.315295         2.659594         0.804275
 H         3.632652         2.835856        -0.141111
