19
Iteration:  2835charge 0 multiplicity 1
 C         0.861262         2.871024        -1.598117
 C         1.978773         1.945284        -1.332551
 C         3.055413         1.332945        -2.350747
 C         3.195832         0.229510        -1.359002
 O         3.735937        -1.076579        -1.714461
 C         1.827096         0.456576        -0.796677
 C         3.006059         0.774318         0.083085
 O         3.415340        -0.018142         1.145359
 C         2.832532         2.341384        -0.024278
 H         0.216303         2.966793        -0.724140
 H         1.227314         3.843245        -1.815946
 H         0.327369         2.560874        -2.539394
 H         2.555509         1.149274        -3.356743
 H         3.896244         2.016637        -2.669574
 H         4.709288        -0.911898        -1.606140
 H         1.031907        -0.192289        -0.759624
 H         2.852792        -0.803994         1.064631
 H         2.193631         2.556521         0.863709
 H         3.723021         2.844728        -0.190557
