19
Iteration:  1847
 C         0.905928         2.911576        -1.700022
 C         1.994756         2.019295        -1.233731
 C         2.860008         1.356817        -2.357399
 C         3.119703         0.164003        -1.420672
 O         4.030016        -0.894921        -1.649402
 C         1.718236         0.429328        -0.797970
 C         2.968266         0.690304         0.053801
 O         3.408517        -0.062555         1.015656
 C         2.894299         2.193706         0.057406
 H         0.327625         3.229960        -0.820417
 H         1.407317         3.724503        -2.350286
 H         0.192859         2.490391        -2.472360
 H         2.234476         0.970560        -3.213658
 H         3.643525         2.071256        -2.544410
 H         4.386203        -1.207487        -0.814635
 H         0.777598        -0.310564        -0.828626
 H         2.689716        -0.155904         1.718448
 H         2.224348         2.472350         0.850147
 H         3.814414         2.782842         0.010035
