19
Iteration:   137charge 0 multiplicity 1
 C         0.850848         2.873459        -1.673923
 C         1.905614         1.911635        -1.292609
 C         3.086708         1.452766        -2.258832
 C         3.227230         0.226356        -1.311360
 O         3.780743        -1.004640        -1.619283
 C         1.750893         0.412118        -0.842856
 C         2.912450         0.785891         0.135859
 O         3.633018        -0.144617         0.948008
 C         2.641731         2.304871        -0.085936
 H         0.245495         3.276952        -0.867093
 H         1.358379         3.761730        -2.018691
 H         0.253181         2.532788        -2.499940
 H         2.810571         1.153580        -3.277984
 H         3.980051         2.063880        -2.140890
 H         4.512828        -1.208049        -1.066628
 H         1.021371        -0.335410        -0.941253
 H         3.344100         0.064045         1.900140
 H         1.899293         2.586152         0.673963
 H         3.687503         2.808593        -0.453049
