19
Iteration:  3001
 C         0.936137         2.883750        -1.663817
 C         1.998892         1.902735        -1.326834
 C         3.034931         1.415632        -2.391036
 C         3.229188         0.300800        -1.411250
 O         3.735974        -1.085390        -1.769958
 C         1.822888         0.471183        -0.791242
 C         2.933484         0.749261         0.172843
 O         3.436814        -0.007758         1.237586
 C         2.771291         2.264026         0.027235
 H         0.286855         3.041777        -0.709218
 H         1.249627         3.872653        -1.899674
 H         0.277949         2.551510        -2.490551
 H         2.367631         1.116851        -3.220062
 H         3.825848         1.790311        -2.874600
 H         4.712499        -1.161173        -1.569266
 H         1.030776        -0.248879        -0.803841
 H         3.355082        -0.959042         0.899984
 H         1.923170         2.780271         0.670190
 H         3.721832         2.787548        -0.250476
