19
Iteration:   752
 C         0.870494         2.859701        -1.824158
 C         1.846711         1.883131        -1.219533
 C         2.996008         1.449817        -2.225496
 C         3.176075         0.219430        -1.465219
 O         3.813985        -0.964596        -1.694122
 C         1.775929         0.427789        -0.852482
 C         3.060394         0.729848        -0.003957
 O         3.534722        -0.031997         1.157453
 C         2.787266         2.185257         0.054198
 H        -0.021648         3.157875        -1.292317
 H         1.469972         3.715910        -2.133126
 H         0.607972         2.467402        -2.862155
 H         2.389070         1.176114        -3.151710
 H         3.774768         2.220539        -2.236147
 H         4.221765        -1.257789        -0.808533
 H         0.918989        -0.383606        -0.762664
 H         2.995979         0.324518         1.849740
 H         2.386725         2.528555         1.083085
 H         3.764506         2.859136        -0.047732
