19
Iteration:    89charge 0 multiplicity 1
 C         0.871383         2.795226        -1.821402
 C         1.950407         1.961161        -1.157794
 C         3.042679         1.498178        -2.311695
 C         3.138538         0.203614        -1.478735
 O         3.800904        -1.008283        -1.734912
 C         1.754297         0.478210        -0.732340
 C         3.021140         0.669899         0.002586
 O         3.515023         0.050825         1.159130
 C         2.806947         2.201454         0.076598
 H        -0.036516         2.879074        -1.196698
 H         1.156572         3.849732        -2.070130
 H         0.540896         2.301036        -2.751385
 H         2.408493         1.222498        -3.186733
 H         3.937006         2.065820        -2.611017
 H         4.507272        -1.069759        -1.028882
 H         0.785421        -0.146838        -0.468962
 H         3.113519        -0.774540         1.345728
 H         2.167052         2.373048         0.918467
 H         3.584639         2.858568        -0.047906
