19
Iteration:  1870
 C         0.882931         2.968771        -1.643217
 C         1.908835         1.898833        -1.263497
 C         3.068520         1.394079        -2.342870
 C         3.192662         0.169502        -1.459273
 O         3.922942        -0.914546        -1.644125
 C         1.690060         0.409502        -0.803201
 C         3.013489         0.712035         0.055462
 O         3.457054        -0.111997         1.062546
 C         2.765278         2.207748        -0.073011
 H         0.433638         3.227842        -0.660085
 H         1.170190         3.787717        -2.357774
 H        -0.067869         2.649689        -2.208530
 H         2.591137         1.283170        -3.339279
 H         3.988119         2.026149        -2.185280
 H         4.462459        -1.114299        -0.840387
 H         0.753709        -0.001568        -0.313645
 H         2.824924        -0.012320         1.747200
 H         2.140392         2.538426         0.726699
 H         3.608686         2.833761        -0.301488
