19
Iteration:  3865
 C         0.891522         2.893856        -1.872002
 C         1.959066         1.873677        -1.336914
 C         3.134020         1.430840        -2.234013
 C         3.077942         0.187758        -1.331500
 O         3.809265        -0.909855        -1.730246
 C         1.651840         0.425171        -0.737939
 C         2.971638         0.673161         0.088917
 O         3.531783        -0.059028         1.119901
 C         2.776845         2.247254         0.021576
 H         0.091631         2.953047        -1.185163
 H         1.334091         3.844670        -1.967809
 H         0.415840         2.564634        -2.782640
 H         2.794641         1.241822        -3.241805
 H         4.053502         2.046284        -2.137043
 H         3.871660        -1.633072        -1.046436
 H         0.712734        -0.136600        -0.511636
 H         4.468763         0.247880         1.331018
 H         2.042828         2.393578         0.891292
 H         3.439815         3.123673        -0.147806
