19
Iteration:  1707charge 0 multiplicity 1
 C         0.873759         2.932889        -1.702936
 C         1.996663         1.958554        -1.240081
 C         2.956197         1.405105        -2.330555
 C         3.071620         0.170725        -1.478628
 O         3.885100        -0.941662        -1.700575
 C         1.728191         0.446265        -0.800927
 C         3.042663         0.682285        -0.041620
 O         3.484091        -0.036820         1.203900
 C         2.811354         2.197259         0.031480
 H         0.060003         3.144622        -1.010376
 H         1.401556         3.674341        -2.299152
 H         0.455049         2.199643        -2.475033
 H         2.610122         0.992633        -3.276456
 H         3.995609         1.945756        -2.423382
 H         4.786380        -0.778631        -1.274937
 H         0.766928        -0.017390        -0.311694
 H         2.643272        -0.463285         1.579698
 H         2.119007         2.473687         0.895692
 H         3.731454         2.895713        -0.083559
