19
Iteration:  1457charge 0 multiplicity 1
 C         0.839830         2.853388        -1.791675
 C         1.999893         1.942570        -1.335967
 C         3.053646         1.447385        -2.314094
 C         3.193266         0.246003        -1.316002
 O         3.719170        -1.013045        -1.618434
 C         1.758837         0.427634        -0.784566
 C         2.943405         0.701767         0.126091
 O         3.557598         0.006494         1.127289
 C         2.754309         2.254534         0.044087
 H         0.023564         2.844906        -1.077904
 H         1.203463         3.852914        -2.015315
 H         0.460511         2.433353        -2.797304
 H         2.434739         0.928718        -3.203144
 H         3.968265         2.134409        -2.510627
 H         3.990502        -1.007441        -2.587220
 H         1.033139        -0.385807        -0.817615
 H         4.318666        -0.558106         0.778444
 H         2.166158         2.570010         0.914525
 H         3.689852         2.743963         0.271533
