19
Iteration:  1169
 C         0.816824         2.757429        -1.665714
 C         2.017975         1.938877        -1.321958
 C         3.172510         1.348251        -2.376984
 C         3.178000         0.235401        -1.334128
 O         3.767678        -0.983535        -1.822327
 C         1.786144         0.467040        -0.807494
 C         2.926487         0.733015         0.105190
 O         3.449404         0.129728         1.277266
 C         2.791830         2.239065        -0.028391
 H         0.071805         2.699454        -0.822809
 H         0.908760         3.834827        -1.918464
 H         0.330031         2.283773        -2.501314
 H         2.468148         1.066399        -3.203763
 H         4.000928         1.924196        -2.648977
 H         4.697360        -0.984257        -1.559506
 H         0.923490        -0.272048        -0.935867
 H         3.147696        -0.809138         1.285773
 H         2.092844         2.488366         0.838474
 H         3.848498         2.738321        -0.038922
