19
Iteration:  2065charge 0 multiplicity 1
 C         0.834965         2.761277        -1.843893
 C         1.987351         2.059202        -1.190996
 C         2.987606         1.494165        -2.310332
 C         3.165966         0.231278        -1.394892
 O         3.813724        -0.993014        -1.675426
 C         1.742590         0.515452        -0.764341
 C         2.948657         0.676889         0.049663
 O         3.540394        -0.089601         1.020054
 C         2.852967         2.155492         0.109341
 H         0.067182         3.270824        -1.312422
 H         1.263503         3.587036        -2.427916
 H         0.511929         2.250425        -2.705752
 H         2.409793         1.354999        -3.282969
 H         3.831039         2.174027        -2.518435
 H         4.268983        -1.269614        -0.805991
 H         0.894342         0.015029        -0.678541
 H         3.031948        -0.323464         1.772219
 H         2.390598         2.570879         1.065529
 H         3.666776         2.890246         0.138623
