19
Iteration:  1335
 C         0.821508         2.760179        -1.567129
 C         2.049833         1.978879        -1.354440
 C         3.072267         1.366437        -2.271718
 C         3.082804         0.108984        -1.457663
 O         3.865340        -1.036983        -1.730949
 C         1.745062         0.505625        -0.851146
 C         2.995079         0.750683         0.040364
 O         3.378643         0.145359         1.222590
 C         2.846537         2.235089         0.000489
 H         0.209554         2.731755        -0.694879
 H         1.078699         3.748490        -1.984640
 H         0.264111         2.215404        -2.335053
 H         2.474868         1.002752        -3.199826
 H         4.027471         1.951559        -2.471302
 H         4.786080        -0.689190        -1.834750
 H         0.738446        -0.032250        -0.860544
 H         3.556424        -0.781669         1.023745
 H         2.178971         2.661322         0.794131
 H         3.661644         2.919299        -0.146335
