19
Iteration:   660charge 0 multiplicity 1
 C         0.850283         2.869227        -1.739947
 C         1.957225         1.960837        -1.268693
 C         3.068908         1.437477        -2.357878
 C         3.183951         0.252276        -1.389563
 O         3.756526        -0.915949        -1.533065
 C         1.769035         0.400497        -0.903107
 C         2.955595         0.669578         0.087162
 O         3.610435        -0.134135         1.064965
 C         2.734044         2.209820        -0.024092
 H         0.053971         3.231678        -1.079741
 H         1.174818         3.907617        -2.010176
 H         0.328684         2.562183        -2.643800
 H         2.402506         1.014530        -3.127901
 H         3.780941         2.314860        -2.479948
 H         4.567321        -0.882259        -0.928484
 H         0.955182        -0.486822        -0.983038
 H         3.016067        -0.003651         1.848680
 H         2.198620         2.703859         0.887480
 H         3.666772         2.762635        -0.224375
