19
Iteration:  4157
 C         0.904144         2.903303        -1.774106
 C         1.973237         1.889538        -1.393995
 C         3.127072         1.449777        -2.215897
 C         3.142751         0.210900        -1.437738
 O         3.857649        -0.963358        -1.657074
 C         1.858230         0.332865        -0.805360
 C         2.902182         0.763936         0.076970
 O         3.393479        -0.000243         1.132450
 C         2.686746         2.213479         0.129367
 H         0.113313         3.037863        -1.012136
 H         1.299085         3.831643        -2.146522
 H         0.493193         2.446569        -2.680015
 H         2.818535         1.222391        -3.288381
 H         4.097977         2.056585        -2.296474
 H         3.175429        -1.702861        -1.704345
 H         1.040299        -0.473321        -0.622231
 H         4.386709         0.140248         1.029973
 H         2.058220         2.676786         0.904816
 H         3.603239         2.943895        -0.118355
