19
Iteration:  4167charge 0 multiplicity 1
 C         0.953215         2.868159        -1.816553
 C         1.927048         1.888206        -1.236452
 C         3.144321         1.428422        -2.303269
 C         3.164765         0.174534        -1.452037
 O         3.865944        -0.983961        -1.634519
 C         1.798353         0.361971        -0.796991
 C         2.972420         0.778405         0.074280
 O         3.393651        -0.015849         1.055709
 C         2.681843         2.277515         0.135121
 H         0.147840         3.016823        -1.092021
 H         1.390901         3.824544        -1.902906
 H         0.492160         2.489838        -2.694336
 H         2.793061         1.158109        -3.330732
 H         3.830208         2.233227        -2.238343
 H         3.241690        -1.745798        -1.788122
 H         0.867965        -0.310084        -0.693750
 H         4.279459         0.287106         1.430649
 H         1.819323         2.533503         0.778508
 H         3.521744         3.107420         0.161282
