19
Iteration:  2568charge 0 multiplicity 1
 C         0.945959         2.938388        -1.840002
 C         1.937419         1.904394        -1.269936
 C         3.042356         1.391833        -2.254739
 C         3.058806         0.183309        -1.406284
 O         3.797532        -0.916736        -1.717050
 C         1.735950         0.435790        -0.778707
 C         2.894355         0.742677         0.142737
 O         3.686946        -0.093154         1.022887
 C         2.762110         2.230656         0.073965
 H         0.337510         3.321364        -1.039660
 H         1.469416         3.692995        -2.458657
 H         0.224810         2.463042        -2.431119
 H         2.411907         1.069136        -3.154242
 H         3.972488         2.005807        -2.241908
 H         3.559323        -1.587108        -1.021084
 H         0.863434        -0.231248        -0.702577
 H         3.327778        -0.005279         1.896141
 H         2.040961         2.732254         0.831715
 H         3.764993         2.699922         0.032719
