19
Iteration:  4387charge 0 multiplicity 1
 C         0.825990         2.904575        -1.711635
 C         1.942511         1.888041        -1.308438
 C         3.068918         1.464603        -2.273861
 C         3.261085         0.199048        -1.396995
 O         4.039260        -0.999533        -1.603378
 C         1.797055         0.448308        -0.886496
 C         2.944807         0.739370         0.018949
 O         3.281497        -0.041863         1.198447
 C         2.696359         2.188891        -0.026855
 H         0.004395         2.930169        -0.903384
 H         1.368528         3.805734        -1.997959
 H         0.406490         2.555242        -2.665858
 H         2.646360         1.469200        -3.377316
 H         3.841029         2.274207        -2.467906
 H         3.251767        -1.541909        -1.924404
 H         1.006161        -0.294047        -0.793130
 H         4.240735         0.223458         1.392951
 H         2.258278         2.466719         0.875053
 H         3.643832         2.703237        -0.010619
