19
Iteration:  4383charge 0 multiplicity 1
 C         0.822109         2.911278        -1.733803
 C         1.894052         1.905637        -1.283870
 C         3.105423         1.521770        -2.291454
 C         3.237116         0.185463        -1.382655
 O         4.033889        -1.017180        -1.612690
 C         1.794910         0.443202        -0.869569
 C         2.966560         0.715166         0.049585
 O         3.300887        -0.042870         1.185614
 C         2.715550         2.167270        -0.036666
 H        -0.029984         2.910606        -1.081386
 H         1.436930         3.804898        -2.006705
 H         0.402218         2.570413        -2.685426
 H         2.691622         1.242733        -3.206085
 H         3.677070         2.426154        -2.564132
 H         3.325336        -1.539367        -1.957658
 H         0.995228        -0.242217        -0.841967
 H         4.099344         0.345059         1.531075
 H         2.180281         2.494780         0.900587
 H         3.678974         2.673076        -0.049053
