19
Iteration:  1082
 C         0.881380         2.943296        -1.798226
 C         1.900007         1.894521        -1.276418
 C         3.010824         1.388071        -2.292218
 C         3.202913         0.223701        -1.386598
 O         3.870965        -0.917374        -1.527418
 C         1.724231         0.410952        -0.816270
 C         2.883052         0.711726         0.093978
 O         3.589662        -0.107046         0.952964
 C         2.734502         2.200907        -0.024754
 H         0.271236         3.059664        -0.873772
 H         1.327257         3.899992        -2.197407
 H         0.213560         2.473304        -2.485598
 H         2.556238         1.055962        -3.286824
 H         3.839460         2.027663        -2.457968
 H         4.607255        -0.879743        -0.830990
 H         0.844809        -0.301375        -0.829046
 H         3.379037         0.295276         1.844899
 H         2.168186         2.573591         0.871639
 H         3.621359         2.829148         0.052633
