19
Iteration:  4382charge 0 multiplicity 1
 C         0.823901         2.910061        -1.739996
 C         1.884719         1.911223        -1.281271
 C         3.111696         1.534920        -2.293839
 C         3.233877         0.186355        -1.380003
 O         4.031339        -1.017366        -1.613687
 C         1.796622         0.439758        -0.865871
 C         2.970792         0.705549         0.057158
 O         3.303666        -0.042678         1.181612
 C         2.720919         2.163410        -0.035170
 H        -0.031979         2.925541        -1.112135
 H         1.429842         3.810376        -1.991952
 H         0.397370         2.569377        -2.697753
 H         2.681263         1.172421        -3.198941
 H         3.665693         2.446155        -2.567066
 H         3.328200        -1.575539        -1.982423
 H         0.958824        -0.257725        -0.847314
 H         4.089252         0.374586         1.568698
 H         2.147514         2.504565         0.905065
 H         3.706293         2.698511        -0.070056
