19
Iteration:  4283
 C         0.921552         2.823500        -1.750912
 C         2.005536         1.906449        -1.361488
 C         3.043764         1.544282        -2.297912
 C         3.181364         0.266144        -1.379308
 O         3.908253        -0.952863        -1.547136
 C         1.792985         0.445062        -0.912677
 C         2.952524         0.716334         0.117498
 O         3.450451        -0.018279         1.115099
 C         2.713685         2.175769         0.045107
 H         0.284982         3.089217        -0.875983
 H         1.336078         3.825447        -2.132754
 H         0.267135         2.234226        -2.475419
 H         2.635555         0.946816        -3.073928
 H         3.883183         2.310759        -2.540298
 H         3.330047        -1.663145        -1.926645
 H         1.073916        -0.438060        -0.862654
 H         2.885733        -0.817245         1.325100
 H         1.951586         2.599311         0.746837
 H         3.527058         2.856813        -0.170393
