19
Iteration:   225
 C         0.817338         2.895505        -1.762663
 C         1.849856         1.906034        -1.347383
 C         3.070149         1.479251        -2.263545
 C         3.198734         0.227505        -1.338552
 O         3.825844        -0.988558        -1.722865
 C         1.754934         0.431359        -0.677013
 C         3.064942         0.712512         0.071549
 O         3.546514        -0.125886         1.144176
 C         2.759722         2.301771        -0.122455
 H         0.109164         2.951727        -0.920386
 H         1.370200         3.800235        -1.896144
 H         0.294756         2.691632        -2.681484
 H         2.738915         1.210180        -3.277644
 H         3.839403         2.291114        -2.179266
 H         4.251887        -1.361704        -0.954751
 H         0.983587        -0.145258        -0.543035
 H         2.701946        -0.661229         1.252139
 H         2.157271         2.505773         0.719935
 H         3.652210         3.026003        -0.364832
