19
Iteration:  4885
 C         0.782744         2.735773        -1.744989
 C         2.081462         1.944894        -1.293736
 C         3.024455         1.449949        -2.329125
 C         3.261230         0.256729        -1.375358
 O         3.749397        -1.000020        -1.718317
 C         1.850419         0.440677        -0.911014
 C         2.950102         0.736828         0.122023
 O         3.445325         0.020084         1.135246
 C         2.783300         2.237373         0.070759
 H         0.209117         2.974731        -0.858202
 H         1.165862         3.773251        -2.031995
 H         0.347758         2.287766        -2.624134
 H         2.431912         1.264806        -3.263272
 H         3.958372         1.989911        -2.593623
 H         4.522303        -1.185144        -1.104835
 H         1.139596        -0.448130        -0.871501
 H         2.712249        -0.140857         1.803263
 H         2.084733         2.644131         0.825471
 H         3.748937         2.820776         0.197663
