19
Iteration:   982
 C         0.792031         2.753828        -1.822471
 C         1.982062         1.969196        -1.254885
 C         3.093584         1.508644        -2.289599
 C         3.143053         0.217276        -1.448059
 O         3.715189        -1.016187        -1.621058
 C         1.744834         0.437596        -0.835655
 C         3.062199         0.690054         0.012426
 O         3.550817         0.029136         1.176312
 C         2.810965         2.226118         0.039006
 H        -0.162485         2.834345        -1.263884
 H         1.068286         3.790812        -2.014610
 H         0.626726         2.345107        -2.845566
 H         2.593433         1.532961        -3.273748
 H         3.943085         2.068610        -2.087710
 H         4.638358        -1.007533        -1.217058
 H         0.910770        -0.198068        -0.608411
 H         2.899512        -0.625125         1.411901
 H         2.347842         2.464969         0.996600
 H         3.574822         2.882232        -0.172355
