19
Iteration:  2896charge 0 multiplicity 1
 C         0.962001         2.906637        -1.802109
 C         1.975095         1.941924        -1.243418
 C         3.045133         1.498445        -2.274172
 C         3.161053         0.167674        -1.395247
 O         3.660892        -1.119924        -1.676620
 C         1.762740         0.436046        -0.793600
 C         3.015450         0.735494         0.057691
 O         3.551224         0.001595         1.123135
 C         2.690137         2.235439         0.039614
 H         0.251992         3.203840        -1.049186
 H         1.571314         3.825089        -2.207523
 H         0.378216         2.512447        -2.638883
 H         2.360997         1.358525        -3.067707
 H         3.825088         2.272789        -2.226424
 H         4.650058        -0.946540        -1.765884
 H         0.888006        -0.093250        -0.477213
 H         3.912884        -0.806624         0.773252
 H         2.156465         2.366113         0.944319
 H         3.504734         3.062345         0.126257
