19
Iteration:  4564charge 0 multiplicity 1
 C         0.798032         2.858952        -1.751088
 C         2.024334         2.012155        -1.392402
 C         3.096621         1.360742        -2.311065
 C         3.230179         0.203159        -1.363818
 O         3.926776        -0.894116        -1.702687
 C         1.772156         0.492377        -0.810674
 C         2.914458         0.757580         0.045078
 O         3.306950        -0.236132         1.178942
 C         2.783570         2.272384         0.040823
 H         0.088383         2.806916        -0.827444
 H         1.006969         3.893701        -2.093929
 H         0.298858         2.205479        -2.538511
 H         2.648506         0.915231        -3.198779
 H         3.918754         2.147250        -2.456596
 H         4.511835        -1.126885        -0.925041
 H         0.923362        -0.099752        -0.748191
 H         3.919668         0.278239         1.695216
 H         2.070121         2.661781         0.695652
 H         3.678034         2.836713        -0.091632
