19
Iteration:   876charge 0 multiplicity 1
 C         0.860006         2.803985        -1.744072
 C         2.008724         1.888577        -1.402210
 C         3.071709         1.314251        -2.305907
 C         3.082776         0.269255        -1.307940
 O         3.893009        -0.803195        -1.788532
 C         1.726136         0.446920        -0.700121
 C         2.962189         0.749070         0.116685
 O         3.475915        -0.087552         1.142236
 C         2.818555         2.254716        -0.026023
 H         0.101384         2.776014        -0.920509
 H         1.166467         3.863535        -2.127547
 H         0.274429         2.456625        -2.576118
 H         2.699037         0.733511        -3.212153
 H         4.058709         1.746641        -2.662340
 H         3.886132        -1.676866        -1.259666
 H         0.879658        -0.069270        -0.642697
 H         2.876454         0.086049         1.861153
 H         2.145252         2.723844         0.757211
 H         3.894468         2.824450         0.170567
