19
Iteration:  1650
 C         0.798615         2.923909        -1.645830
 C         1.912147         1.934928        -1.391595
 C         3.050478         1.432979        -2.310022
 C         3.170927         0.171578        -1.477493
 O         3.798493        -0.996882        -1.635104
 C         1.831508         0.404448        -0.775779
 C         3.073032         0.697762         0.033770
 O         3.471605        -0.029729         1.123865
 C         2.788647         2.266705        -0.013601
 H         0.276832         3.071962        -0.708324
 H         1.219812         3.949031        -1.835805
 H         0.083728         2.619963        -2.426955
 H         2.897416         1.182838        -3.400892
 H         4.047868         2.023576        -2.413420
 H         4.325167        -1.233218        -0.873851
 H         1.057775        -0.202201        -0.501865
 H         2.741319        -0.634579         1.240903
 H         2.144839         2.559165         0.845416
 H         3.620856         3.027041        -0.167255
