19
Iteration:  3387
 C         0.821309         2.791639        -1.855921
 C         2.061176         2.027466        -1.290875
 C         3.082512         1.555750        -2.310848
 C         3.135383         0.171730        -1.464442
 O         3.809686        -1.036563        -1.706284
 C         1.811138         0.453464        -0.757774
 C         2.986791         0.682963         0.078183
 O         3.435474        -0.027132         1.152231
 C         2.734557         2.233108         0.129598
 H         0.075671         2.766703        -1.032467
 H         1.138650         3.864444        -2.132205
 H         0.430322         2.274719        -2.764096
 H         2.659966         1.272804        -3.360285
 H         4.008498         2.213654        -2.395330
 H         3.747107        -1.597684        -0.883324
 H         0.693699         0.145712        -0.572438
 H         4.366594        -0.303013         1.055844
 H         1.953193         2.383703         0.952902
 H         3.648227         2.932505         0.276396
