19
Iteration:  2807
 C         0.860534         2.858250        -1.628054
 C         1.970598         1.992860        -1.290496
 C         2.994834         1.468775        -2.402166
 C         3.185809         0.192106        -1.456738
 O         3.726171        -1.062422        -1.556290
 C         1.806603         0.487715        -0.871829
 C         3.092535         0.727202        -0.005149
 O         3.452586        -0.026830         1.135030
 C         2.852874         2.188400        -0.021490
 H         0.017341         2.825984        -0.878982
 H         1.105133         3.953498        -1.909475
 H         0.519000         2.476405        -2.581286
 H         2.365868         1.356887        -3.299076
 H         3.856211         2.176879        -2.424992
 H         4.634293        -0.849250        -1.166714
 H         0.920197        -0.147133        -0.430189
 H         2.678111        -0.498711         1.397342
 H         2.203663         2.337939         0.859555
 H         3.916087         2.736401        -0.100060
