19
Iteration:  4277
 C         0.885564         2.840628        -1.713453
 C         2.012278         1.943265        -1.376523
 C         3.045413         1.502502        -2.298540
 C         3.227428         0.277124        -1.344564
 O         3.944211        -0.978044        -1.567674
 C         1.795963         0.406718        -0.907195
 C         2.910552         0.716126         0.074173
 O         3.440138        -0.019486         1.136858
 C         2.733971         2.193858         0.062455
 H         0.241534         3.212572        -0.915010
 H         1.212847         3.770269        -2.159343
 H         0.365483         2.320123        -2.479881
 H         2.486995         1.011060        -3.201337
 H         3.937362         1.996030        -2.594025
 H         3.272300        -1.536129        -1.912772
 H         0.919332        -0.241148        -0.892334
 H         2.925741        -0.820114         1.187657
 H         1.957363         2.585753         0.690786
 H         3.452127         3.032644        -0.158772
