19
Iteration:   156
 C         0.788119         2.898139        -1.702446
 C         1.933819         1.913648        -1.364779
 C         3.126487         1.437921        -2.281928
 C         3.130711         0.195834        -1.431111
 O         3.824310        -0.913930        -1.597868
 C         1.696629         0.387724        -0.837990
 C         2.992162         0.666607         0.018055
 O         3.564667        -0.051186         1.024792
 C         2.785076         2.214152         0.043546
 H         0.286184         3.056330        -0.736652
 H         1.249822         3.875942        -2.072989
 H         0.068049         2.578183        -2.477817
 H         2.690901         1.117269        -3.288868
 H         3.998583         2.133091        -2.243259
 H         4.244459        -1.133352        -0.760968
 H         0.784260        -0.409417        -0.671506
 H         3.458474         0.427481         1.899462
 H         2.128045         2.385089         0.900302
 H         3.673529         2.766332        -0.092961
