19
Iteration:  2096charge 0 multiplicity 1
 C         0.837248         2.827108        -1.791324
 C         1.999047         1.959472        -1.273695
 C         3.135398         1.445822        -2.238568
 C         3.111907         0.238499        -1.389718
 O         3.689196        -0.980139        -1.668886
 C         1.762414         0.431718        -0.775133
 C         3.024850         0.735788         0.113176
 O         3.639316        -0.118904         0.978128
 C         2.669502         2.275045        -0.007417
 H        -0.046741         3.074900        -1.159009
 H         1.413432         3.810685        -1.880040
 H         0.474457         2.452163        -2.751967
 H         2.823575         1.340141        -3.346957
 H         4.097970         2.019639        -2.078034
 H         4.238894        -1.254880        -0.946037
 H         0.982706        -0.178175        -0.539426
 H         3.057917        -0.239278         1.791247
 H         2.021583         2.402447         0.967806
 H         3.437301         3.118785        -0.046240
