19
Iteration:  2253
 C         0.821942         2.875029        -1.746843
 C         1.994027         1.930835        -1.359091
 C         3.145554         1.463136        -2.197764
 C         3.175917         0.238319        -1.278204
 O         3.654638        -1.017143        -1.680217
 C         1.765834         0.430586        -0.852618
 C         2.957176         0.715016         0.065104
 O         3.652702        -0.089636         1.009020
 C         2.671594         2.257530        -0.030102
 H         0.208077         3.051396        -0.859972
 H         1.229950         3.865439        -2.056959
 H         0.269420         2.522230        -2.656348
 H         2.959894         1.241337        -3.279329
 H         4.145874         2.010047        -2.134665
 H         4.498548        -1.196977        -1.152475
 H         0.801254        -0.001299        -0.552061
 H         3.252520        -0.242468         1.903198
 H         2.023986         2.563822         0.844058
 H         3.546811         2.891443         0.084371
