19
Iteration:  4391
 C         0.835173         2.878831        -1.692450
 C         1.975647         1.895001        -1.338831
 C         3.041641         1.431464        -2.284699
 C         3.282464         0.224288        -1.413852
 O         4.023476        -0.974367        -1.596141
 C         1.798226         0.422878        -0.896545
 C         2.930325         0.732690         0.010072
 O         3.270203        -0.031177         1.200597
 C         2.701806         2.210225        -0.009123
 H         0.163521         3.010354        -0.852168
 H         1.252570         3.880887        -1.913996
 H         0.358021         2.532247        -2.637322
 H         2.629136         1.514381        -3.362924
 H         4.006323         2.040586        -2.289328
 H         3.338272        -1.592143        -1.893640
 H         0.969028        -0.335297        -0.744692
 H         4.241927         0.054875         1.255718
 H         2.129746         2.504454         0.950415
 H         3.668565         2.858912        -0.055823
