19
Iteration:  1842charge 0 multiplicity 1
 C         0.929150         2.930931        -1.745008
 C         2.011628         1.968677        -1.209290
 C         2.840670         1.326805        -2.351080
 C         3.161555         0.189782        -1.400826
 O         3.996201        -0.858009        -1.659745
 C         1.718453         0.413159        -0.809501
 C         2.945646         0.730748         0.056405
 O         3.437804        -0.103504         1.051628
 C         2.885826         2.194006         0.054584
 H         0.176728         3.281020        -0.990664
 H         1.167041         3.911812        -2.210993
 H         0.191765         2.451304        -2.368910
 H         2.240668         1.098507        -3.230311
 H         3.691387         1.934714        -2.826901
 H         4.272654        -1.232024        -0.768792
 H         0.866182        -0.195610        -0.914698
 H         2.723441        -0.209605         1.675510
 H         2.181615         2.504526         0.897503
 H         3.880353         2.717471        -0.061283
