19
Iteration:  1394
 C         0.878156         2.862107        -1.733270
 C         2.002287         1.940932        -1.301609
 C         3.007287         1.367746        -2.392963
 C         3.201487         0.280403        -1.386236
 O         3.744347        -0.994715        -1.591455
 C         1.763638         0.442849        -0.819812
 C         2.881058         0.754825         0.086820
 O         3.632603        -0.030640         1.121819
 C         2.705797         2.234486         0.120643
 H         0.083541         3.268315        -1.084623
 H         1.306681         3.798289        -2.099291
 H         0.499979         2.362822        -2.653700
 H         2.361370         1.028641        -3.189303
 H         3.817072         1.846038        -2.899411
 H         4.685156        -1.069006        -1.274545
 H         0.943156        -0.185526        -0.913024
 H         3.802752        -0.833636         0.543937
 H         1.859826         2.503835         0.777009
 H         3.572083         3.015703         0.053979
