19
Iteration:  3250charge 0 multiplicity 1
 C         0.887847         2.826289        -1.764015
 C         1.935973         1.916210        -1.205715
 C         3.136089         1.462620        -2.273231
 C         3.233370         0.250857        -1.480416
 O         3.767411        -0.976318        -1.602574
 C         1.654000         0.462159        -0.781269
 C         2.971392         0.674246        -0.028709
 O         3.506657        -0.086945         1.012408
 C         2.773259         2.213069         0.039652
 H         0.069936         2.978556        -0.993895
 H         1.221412         3.838196        -1.928487
 H         0.545335         2.496911        -2.759877
 H         2.545933         1.271316        -3.186511
 H         4.061418         2.106291        -2.415591
 H         4.187284        -1.040472        -0.742857
 H         0.659069        -0.153273        -0.668247
 H         3.558893         0.368619         1.844960
 H         2.140447         2.590366         0.854080
 H         3.761149         2.808927        -0.027689
