19
Iteration:  1731
 C         0.833883         2.883219        -1.802470
 C         1.936923         1.893553        -1.294106
 C         3.073440         1.478928        -2.217574
 C         3.168296         0.230697        -1.347699
 O         3.740398        -1.033191        -1.706768
 C         1.832370         0.389103        -0.745194
 C         2.980717         0.776371         0.080706
 O         3.549638        -0.102476         1.003900
 C         2.726389         2.293019         0.035338
 H         0.186808         3.081884        -0.911380
 H         1.605082         3.637768        -2.005224
 H         0.205057         2.625968        -2.728269
 H         2.791620         1.006845        -3.171040
 H         3.890707         2.265045        -2.277630
 H         4.655177        -1.099305        -1.409948
 H         0.965339        -0.314951        -0.665528
 H         2.946388        -0.081995         1.789451
 H         1.998407         2.760528         0.828850
 H         3.728427         2.871372        -0.099849
