19
Iteration:   651
 C         0.872518         2.921410        -1.775095
 C         1.958221         1.950379        -1.301214
 C         3.054653         1.398466        -2.285720
 C         3.119745         0.295824        -1.391924
 O         3.762410        -0.919217        -1.573088
 C         1.782525         0.383952        -0.848293
 C         2.949834         0.690760         0.088347
 O         3.612163        -0.105231         1.028478
 C         2.703895         2.209209         0.038280
 H         0.161080         2.912639        -0.964550
 H         1.303211         3.822557        -1.997745
 H         0.443632         2.393660        -2.608261
 H         2.630098         1.041010        -3.292619
 H         4.004522         1.940847        -2.615495
 H         4.643046        -1.006954        -1.108599
 H         1.045548        -0.451589        -0.903616
 H         3.174713        -0.115254         1.919188
 H         1.949295         2.729876         0.744528
 H         3.594204         2.851680        -0.135551
