19
Iteration:  3854
 C         0.916119         2.846064        -1.844511
 C         1.967442         1.906572        -1.293136
 C         3.148930         1.474261        -2.250160
 C         3.098287         0.195903        -1.388759
 O         3.775211        -0.960023        -1.777518
 C         1.768695         0.397097        -0.640354
 C         2.928238         0.760196         0.108878
 O         3.475342        -0.061758         1.134002
 C         2.710492         2.214380        -0.000456
 H         0.164427         2.942757        -1.123733
 H         1.216739         3.804695        -2.138855
 H         0.541904         2.402727        -2.741979
 H         2.952458         1.332255        -3.300499
 H         4.021909         2.170563        -2.223488
 H         3.784624        -1.496316        -0.914398
 H         0.868673        -0.261540        -0.711096
 H         4.420184         0.351124         1.028238
 H         2.108674         2.701639         0.844513
 H         3.684765         2.789887        -0.102885
