19
Iteration:  4393
 C         0.842681         2.865747        -1.689515
 C         1.979969         1.906253        -1.347499
 C         3.042051         1.428331        -2.299558
 C         3.284051         0.231491        -1.420221
 O         4.013356        -0.962071        -1.593859
 C         1.794449         0.401667        -0.897091
 C         2.928833         0.723534         0.015830
 O         3.267200        -0.024295         1.196688
 C         2.712381         2.222205         0.003550
 H         0.215495         3.032852        -0.842411
 H         1.212299         3.908846        -1.876067
 H         0.323589         2.531838        -2.600343
 H         2.652258         1.468193        -3.284902
 H         4.028045         1.950143        -2.230971
 H         3.401652        -1.621653        -1.883768
 H         0.994376        -0.296898        -0.736771
 H         4.217449        -0.022736         1.207803
 H         2.076094         2.512396         0.917716
 H         3.616182         2.894312        -0.080063
