19
Iteration:  3885charge 0 multiplicity 1
 C         0.912302         2.953281        -1.809790
 C         1.953749         1.948407        -1.262650
 C         2.997954         1.353990        -2.284242
 C         3.110066         0.162188        -1.359639
 O         3.894359        -0.964236        -1.658000
 C         1.735056         0.458215        -0.877776
 C         3.023387         0.770214         0.056800
 O         3.499053        -0.078197         1.117495
 C         2.677787         2.188665         0.060588
 H        -0.017270         3.067547        -1.178254
 H         1.277428         3.936517        -1.920343
 H         0.656944         2.462683        -2.758827
 H         2.493246         0.999227        -3.147868
 H         3.889456         1.946601        -2.571615
 H         3.851741        -1.426542        -0.817302
 H         0.831082        -0.123492        -0.543559
 H         4.362987         0.277677         0.988301
 H         2.052718         2.572082         0.921554
 H         3.622455         2.870870         0.013025
