19
Iteration:  3069charge 0 multiplicity 1
 C         0.903492         2.802589        -1.801795
 C         1.978920         1.952285        -1.341408
 C         3.105360         1.416820        -2.296607
 C         3.079464         0.261696        -1.397218
 O         3.673370        -0.981387        -1.688207
 C         1.809097         0.468731        -0.822055
 C         2.954991         0.745772         0.143345
 O         3.632745        -0.070112         1.085462
 C         2.714410         2.277917         0.124191
 H         0.360627         2.992070        -0.828551
 H         1.341724         3.819869        -1.952943
 H         0.327199         2.469335        -2.668428
 H         2.763893         1.014151        -3.290287
 H         4.028107         2.006252        -2.567714
 H         4.470950        -1.109427        -1.189723
 H         0.993674        -0.294507        -0.781535
 H         2.897677        -0.705257         1.324469
 H         1.870617         2.736956         0.830249
 H         3.738165         2.715046         0.082730
