19
Iteration:  4380charge 0 multiplicity 1
 C         0.830690         2.905111        -1.754695
 C         1.871698         1.921282        -1.279795
 C         3.118047         1.556492        -2.296497
 C         3.231185         0.192091        -1.375492
 O         4.023214        -1.014876        -1.615230
 C         1.798304         0.428886        -0.859669
 C         2.977117         0.685330         0.070012
 O         3.308736        -0.042030         1.174881
 C         2.732431         2.160301        -0.026166
 H        -0.052047         2.974071        -1.134597
 H         1.392361         3.826187        -1.951677
 H         0.394865         2.566421        -2.722980
 H         2.651798         1.045402        -3.209717
 H         3.676623         2.467749        -2.560516
 H         3.347409        -1.648951        -2.029270
 H         0.901675        -0.280604        -0.852129
 H         4.072081         0.422183         1.634175
 H         2.103673         2.513863         0.878774
 H         3.730409         2.753396        -0.113478
