19
Iteration:  3863charge 0 multiplicity 1
 C         0.897708         2.896694        -1.878150
 C         1.971854         1.852372        -1.337565
 C         3.142703         1.451641        -2.241972
 C         3.073738         0.178807        -1.332608
 O         3.803394        -0.913892        -1.743054
 C         1.664635         0.417326        -0.705456
 C         2.967802         0.692568         0.097698
 O         3.516996        -0.065408         1.122405
 C         2.771170         2.237077         0.018283
 H         0.083334         2.975267        -1.115078
 H         1.265817         3.884108        -1.968967
 H         0.443210         2.481261        -2.791214
 H         2.864548         1.283009        -3.243264
 H         4.052535         2.098284        -2.190606
 H         3.843607        -1.605416        -1.009500
 H         0.698775        -0.173412        -0.558007
 H         4.461266         0.346254         1.217582
 H         2.092100         2.432520         0.921266
 H         3.429646         3.151731        -0.160098
