19
Iteration:  3050
 C         0.861210         2.872939        -1.759450
 C         1.991389         1.950059        -1.272287
 C         3.143163         1.435168        -2.210844
 C         3.115732         0.177459        -1.365056
 O         3.704434        -1.032085        -1.772271
 C         1.767306         0.407815        -0.782116
 C         2.901869         0.688977         0.086933
 O         3.576186         0.031006         1.147386
 C         2.792848         2.244975         0.003780
 H         0.063969         3.165789        -1.127351
 H         1.296953         3.844721        -2.128621
 H         0.343301         2.318576        -2.574420
 H         2.944737         1.516437        -3.260863
 H         3.942504         2.265690        -2.291135
 H         4.658037        -1.026480        -1.656268
 H         0.792822        -0.183782        -0.682627
 H         3.043306        -0.747010         1.367503
 H         2.191624         2.526636         0.838082
 H         3.589031         2.932123        -0.276910
