19
Iteration:  3403charge 0 multiplicity 1
 C         0.842177         2.866171        -1.820346
 C         1.915548         1.933462        -1.276046
 C         3.143395         1.440308        -2.215212
 C         3.144176         0.245323        -1.369857
 O         3.826091        -0.987253        -1.710058
 C         1.701040         0.460058        -0.842551
 C         2.983391         0.705283         0.054150
 O         3.466044        -0.047163         1.164562
 C         2.805281         2.219948         0.029234
 H        -0.157862         2.913006        -1.330347
 H         1.116708         3.888927        -2.028360
 H         0.385581         2.459301        -2.726144
 H         2.710854         1.417194        -3.162840
 H         4.071614         2.002209        -2.266644
 H         3.796913        -1.569964        -0.955534
 H         1.011111        -0.293079        -0.605932
 H         4.362483        -0.240144         0.891312
 H         2.210927         2.557585         0.874232
 H         3.634027         2.896721        -0.055352
