19
Iteration:  1859
 C         0.888453         2.921382        -1.639345
 C         1.933335         1.900825        -1.297114
 C         2.979623         1.442300        -2.307871
 C         3.104029         0.168309        -1.437568
 O         4.028507        -0.952457        -1.653696
 C         1.704904         0.452748        -0.767932
 C         2.947723         0.703331        -0.066144
 O         3.420578        -0.084115         1.060214
 C         2.830793         2.198705        -0.001231
 H         0.452119         3.522788        -0.831652
 H         1.456559         3.758982        -2.149169
 H         0.104604         2.386296        -2.273482
 H         2.496257         1.210320        -3.295264
 H         3.878956         1.980963        -2.659515
 H         4.455728        -1.000512        -0.740575
 H         0.850212        -0.114680        -0.288458
 H         2.739504        -0.040840         1.752581
 H         2.259761         2.516109         0.841358
 H         3.698834         2.835043        -0.047243
