19
Iteration:   947
 C         0.899782         2.841866        -1.744362
 C         2.029496         1.980211        -1.353683
 C         3.079436         1.414296        -2.337880
 C         3.158545         0.258233        -1.306552
 O         3.736609        -0.993022        -1.551662
 C         1.742158         0.422459        -0.869005
 C         2.928916         0.753430         0.148732
 O         3.686037        -0.069903         1.017012
 C         2.584532         2.227425        -0.008024
 H         0.281416         2.963650        -0.826648
 H         1.354242         3.775216        -2.024193
 H         0.172143         2.549560        -2.600501
 H         2.784857         1.185190        -3.323782
 H         3.938561         2.006461        -2.493169
 H         4.748651        -1.062272        -1.399587
 H         0.736639        -0.292142        -0.786172
 H         3.161221        -0.596556         1.622341
 H         1.818725         2.662220         0.632542
 H         3.410562         2.966882         0.020632
