19
Iteration:    55
 C         0.782774         2.873029        -1.658503
 C         1.944307         1.901215        -1.305656
 C         3.208623         1.360261        -2.321438
 C         3.176019         0.289533        -1.351038
 O         3.736665        -0.929064        -1.763578
 C         1.766176         0.408759        -0.796041
 C         2.990913         0.691226         0.116247
 O         3.473562         0.018890         1.225007
 C         2.783826         2.264259        -0.109878
 H         0.151949         2.955563        -0.726527
 H         1.187021         3.896594        -1.892850
 H         0.172241         2.415108        -2.472141
 H         2.760756         0.848988        -3.194727
 H         4.132852         1.941351        -2.567798
 H         4.562051        -1.090181        -1.335486
 H         1.033082        -0.438717        -0.932435
 H         3.269306        -0.913405         1.105614
 H         2.185150         2.647716         0.739010
 H         3.586407         2.776964        -0.368870
