19
Iteration:   853charge 0 multiplicity 1
 C         0.827958         2.782999        -1.741367
 C         1.965112         1.963813        -1.253661
 C         3.007411         1.416589        -2.302118
 C         3.210278         0.247564        -1.357730
 O         3.875789        -1.031999        -1.740729
 C         1.807699         0.498901        -0.806487
 C         2.996417         0.751282         0.075041
 O         3.454128        -0.058436         1.125094
 C         2.797298         2.297565        -0.029178
 H         0.011893         2.832502        -1.004686
 H         1.098295         3.838363        -2.073276
 H         0.328773         2.370548        -2.610926
 H         2.588722         1.115016        -3.313037
 H         3.986598         1.930680        -2.470430
 H         4.088246        -1.577484        -0.992879
 H         0.931936        -0.068885        -0.555753
 H         2.647190        -0.240941         1.691683
 H         2.194680         2.663050         0.861890
 H         3.746789         3.007624        -0.084295
