19
Iteration:  1228
 C         0.855413         2.872968        -1.768538
 C         1.898758         1.913664        -1.356108
 C         3.036887         1.419479        -2.282075
 C         3.177665         0.230280        -1.348791
 O         3.825262        -0.991272        -1.541248
 C         1.703725         0.429862        -0.829902
 C         2.918400         0.727453         0.103699
 O         3.525152        -0.033645         1.081497
 C         2.784518         2.204292        -0.022151
 H         0.294012         3.189971        -0.899994
 H         1.390689         3.788689        -2.125795
 H         0.154148         2.462216        -2.577239
 H         2.574028         1.191496        -3.208152
 H         3.771058         2.155750        -2.631152
 H         4.724272        -0.599205        -1.550975
 H         0.908068        -0.294958        -0.611219
 H         4.210504        -0.599094         0.714299
 H         2.273845         2.722080         0.851559
 H         3.818951         2.728614         0.065518
