19
Iteration:   447charge 0 multiplicity 1
 C         0.839211         2.847477        -1.852212
 C         1.946005         1.891720        -1.259606
 C         3.080768         1.511995        -2.225787
 C         3.184503         0.225494        -1.376115
 O         3.738645        -0.956146        -1.747948
 C         1.728328         0.430001        -0.778699
 C         2.962756         0.670928         0.083099
 O         3.589146        -0.043505         1.072484
 C         2.749094         2.166034         0.053278
 H         0.025482         2.996627        -1.116299
 H         1.311636         3.851861        -1.923343
 H         0.483331         2.426634        -2.839026
 H         2.841991         1.306903        -3.302399
 H         4.001440         2.284079        -2.192770
 H         4.346653        -1.298639        -1.034942
 H         0.866167        -0.317287        -0.579612
 H         3.418982         0.360286         1.966512
 H         2.159795         2.540796         0.901830
 H         3.649313         2.840866        -0.190472
