19
Iteration:  3261
 C         0.858766         2.931962        -1.750688
 C         1.923765         1.949376        -1.330103
 C         3.056282         1.481461        -2.283991
 C         3.214374         0.241919        -1.357397
 O         3.811893        -0.981955        -1.602589
 C         1.751773         0.379051        -0.749962
 C         2.960443         0.710471         0.002099
 O         3.478936        -0.162241         1.013706
 C         2.790606         2.236006         0.008649
 H        -0.054457         3.022353        -1.080381
 H         1.399202         3.866709        -1.871572
 H         0.428279         2.611478        -2.718060
 H         2.802632         1.190035        -3.327071
 H         3.873607         2.251859        -2.401968
 H         4.048747        -1.498119        -0.801277
 H         0.901665        -0.409579        -0.574376
 H         3.675549         0.461691         1.718019
 H         2.189600         2.591774         0.858689
 H         3.648013         2.974838        -0.231471
