19
Iteration:  4107charge 0 multiplicity 1
 C         0.859518         2.846001        -1.786034
 C         2.028512         1.962489        -1.217069
 C         3.127321         1.405269        -2.331386
 C         3.172627         0.249382        -1.447189
 O         3.910122        -0.931653        -1.555627
 C         1.798398         0.369608        -0.801865
 C         2.887863         0.676373         0.019530
 O         3.406874         0.028097         1.129104
 C         2.801701         2.244264         0.074488
 H         0.187889         2.912792        -0.907706
 H         1.110150         3.828376        -2.267542
 H         0.254675         2.281702        -2.548868
 H         2.650591         1.190788        -3.279121
 H         3.819382         2.128939        -2.716615
 H         3.451921        -1.465059        -2.238390
 H         0.913266        -0.199399        -0.548745
 H         3.129439        -0.903575         1.055050
 H         1.963528         2.646332         0.698625
 H         3.587536         2.929859         0.081876
