19
Iteration:   159charge 0 multiplicity 1
 C         0.789049         2.883490        -1.706480
 C         1.949981         1.937841        -1.351678
 C         3.110494         1.447441        -2.315700
 C         3.140715         0.193154        -1.442993
 O         3.840191        -0.914847        -1.598362
 C         1.678014         0.401029        -0.831652
 C         2.968631         0.659324         0.004396
 O         3.567328        -0.042964         1.047241
 C         2.775477         2.183390         0.052906
 H         0.281907         3.099760        -0.763213
 H         1.208429         3.824358        -2.017746
 H         0.105399         2.566816        -2.479380
 H         2.679646         1.164582        -3.278539
 H         3.989732         2.098997        -2.285324
 H         4.237711        -1.190201        -0.706960
 H         0.903613        -0.243913        -0.584326
 H         3.419082         0.464463         1.824941
 H         2.126116         2.273036         0.920823
 H         3.820679         2.722664        -0.112362
