19
Iteration:   840
 C         0.783316         2.810664        -1.749622
 C         1.934537         1.914239        -1.280631
 C         3.072650         1.519555        -2.284274
 C         3.142513         0.137547        -1.509794
 O         3.815541        -1.052162        -1.645430
 C         1.838579         0.416803        -0.815952
 C         3.089342         0.785909         0.029894
 O         3.457558        -0.034099         1.127893
 C         2.830021         2.296105         0.067986
 H         0.014639         3.049230        -1.036527
 H         1.247504         3.738862        -1.973286
 H         0.391932         2.319704        -2.674257
 H         2.502743         1.314267        -3.303447
 H         3.820495         2.319484        -2.480563
 H         4.196226        -1.091925        -0.684710
 H         0.854139        -0.312347        -0.854537
 H         2.675992        -0.202321         1.630190
 H         2.158886         2.635858         0.925567
 H         3.723645         2.961548        -0.145208
