19
Iteration:  1311
 C         0.833759         2.796393        -1.726338
 C         1.977073         1.933776        -1.385518
 C         3.089445         1.413649        -2.418358
 C         3.236852         0.282855        -1.416781
 O         3.668194        -0.978512        -1.715278
 C         1.794721         0.410600        -0.794545
 C         2.982018         0.691833         0.087515
 O         3.492221         0.061324         1.309585
 C         2.765945         2.244904         0.075338
 H         0.151898         2.661505        -0.870628
 H         1.134299         3.842565        -1.936421
 H         0.319154         2.390043        -2.560574
 H         2.571081         0.899438        -3.304212
 H         3.956249         2.180496        -2.653212
 H         4.613151        -1.013616        -1.666425
 H         1.044075        -0.290954        -0.761115
 H         3.834350        -0.810078         1.104126
 H         2.186532         2.725633         0.861962
 H         3.696902         2.736354        -0.153149
