19
Iteration:  3101charge 0 multiplicity 1
 C         0.847769         2.908118        -1.783157
 C         1.933542         2.026703        -1.270880
 C         2.996485         1.500127        -2.267407
 C         3.162091         0.197573        -1.427170
 O         3.839450        -1.065126        -1.532805
 C         1.785986         0.493914        -0.852587
 C         3.013589         0.706570        -0.039789
 O         3.549891        -0.116426         1.001823
 C         2.789764         2.172945         0.062818
 H         0.013341         3.006367        -1.016968
 H         1.287816         3.906315        -1.964406
 H         0.311899         2.539728        -2.659045
 H         2.509228         1.134887        -3.215406
 H         3.777357         2.229237        -2.535144
 H         3.985288        -1.255503        -0.552145
 H         0.960216        -0.257672        -0.705528
 H         2.896147         0.066841         1.672077
 H         2.194780         2.594341         0.979629
 H         3.732216         2.789350         0.039921
