19
Iteration:  3371
 C         0.876724         2.735620        -1.770209
 C         2.021674         1.960651        -1.211122
 C         3.133675         1.392589        -2.324607
 C         3.150979         0.263776        -1.409052
 O         3.754030        -0.958171        -1.720822
 C         1.797387         0.523677        -0.874781
 C         3.038381         0.820679         0.059366
 O         3.406112        -0.116080         1.142992
 C         2.721710         2.242335         0.109133
 H         0.055678         2.971941        -0.996135
 H         1.145306         3.670384        -2.206275
 H         0.543824         2.119122        -2.599446
 H         2.574351         1.301038        -3.228828
 H         4.063876         1.902676        -2.484853
 H         3.511195        -1.520863        -0.918388
 H         1.090000        -0.210136        -0.774283
 H         4.380518         0.094753         1.216533
 H         1.900376         2.484277         0.766867
 H         3.523406         3.031375         0.141808
