19
Iteration:  1918
 C         0.880938         2.756711        -1.773871
 C         2.028532         2.000034        -1.244075
 C         3.058419         1.550327        -2.294535
 C         3.101103         0.207206        -1.444370
 O         3.668035        -0.982122        -1.647697
 C         1.783143         0.465029        -0.882888
 C         3.011495         0.698884         0.047369
 O         3.651559        -0.037970         1.063509
 C         2.744547         2.187594         0.126606
 H        -0.083551         2.824599        -1.248316
 H         1.203682         3.700257        -2.168109
 H         0.626032         2.402886        -2.773165
 H         2.668276         1.111951        -3.206007
 H         4.028930         2.143571        -2.350104
 H         4.052224        -1.257148        -0.819011
 H         0.806172        -0.053391        -0.835517
 H         2.908403        -0.121219         1.742053
 H         2.051619         2.230705         0.968588
 H         3.572811         2.879006         0.237681
