19
Iteration:  1197charge 0 multiplicity 1
 C         0.850081         2.833058        -1.640017
 C         1.936026         1.924917        -1.290206
 C         3.038686         1.426346        -2.419508
 C         3.213734         0.201163        -1.428387
 O         3.847862        -1.056182        -1.606802
 C         1.869303         0.429983        -0.806112
 C         3.073296         0.783897         0.018692
 O         3.323606         0.028603         1.222772
 C         2.750165         2.268180        -0.044365
 H         0.183715         3.056354        -0.816396
 H         1.205885         3.739428        -2.110756
 H         0.147609         2.430195        -2.442086
 H         2.308275         1.183755        -3.146870
 H         3.870641         2.206050        -2.702015
 H         4.692537        -0.820153        -2.075818
 H         1.133679        -0.356830        -0.534373
 H         3.326773        -0.962696         1.079051
 H         2.220003         2.568602         0.864968
 H         3.629715         2.914379        -0.027259
