19
Iteration:  3255
 C         0.866586         2.857067        -1.745757
 C         1.908279         1.946201        -1.270183
 C         3.128969         1.462361        -2.261588
 C         3.248502         0.261546        -1.445238
 O         3.775262        -0.971415        -1.595961
 C         1.672781         0.393031        -0.741094
 C         2.968098         0.673837        -0.073833
 O         3.491754        -0.118138         1.019252
 C         2.792319         2.238635         0.041161
 H         0.086178         3.051222        -1.026183
 H         1.295896         3.883674        -1.937040
 H         0.601431         2.583888        -2.774229
 H         2.619534         1.231698        -3.242990
 H         3.916487         2.191460        -2.440485
 H         4.159699        -1.306438        -0.718516
 H         0.827311        -0.172428        -0.631519
 H         3.645055         0.378903         1.868123
 H         2.144114         2.672826         0.821315
 H         3.643308         2.843510        -0.122468
