19
Iteration:  4147charge 0 multiplicity 1
 C         0.860263         2.865124        -1.810262
 C         1.980673         1.964827        -1.327408
 C         3.141859         1.463200        -2.267068
 C         3.190902         0.232002        -1.351274
 O         3.864691        -0.943922        -1.676490
 C         1.774475         0.357527        -0.861314
 C         2.899534         0.699662         0.131521
 O         3.427612         0.000313         1.212930
 C         2.696826         2.192894        -0.027857
 H         0.176445         3.090185        -0.936090
 H         1.347296         3.822142        -2.089974
 H         0.164550         2.588783        -2.635686
 H         2.768962         1.388559        -3.315450
 H         4.198911         1.977481        -2.243824
 H         3.208900        -1.679893        -1.648665
 H         0.961755        -0.441960        -0.689018
 H         4.338559        -0.268001         0.962008
 H         2.136470         2.524553         0.842135
 H         3.724363         2.724324        -0.041374
