19
Iteration:  3185charge 0 multiplicity 1
 C         0.962555         2.898736        -1.783097
 C         1.919084         1.874399        -1.228970
 C         2.976333         1.534861        -2.291366
 C         3.179502         0.295722        -1.414688
 O         3.787351        -1.034616        -1.671749
 C         1.812601         0.336960        -0.785478
 C         3.051155         0.729495        -0.002585
 O         3.492529        -0.049042         1.135761
 C         2.763728         2.252442        -0.018540
 H         0.411324         3.123128        -0.827653
 H         1.333012         3.839409        -2.089095
 H         0.325204         2.525001        -2.563176
 H         2.519903         1.322228        -3.324620
 H         3.884519         2.219429        -2.385580
 H         4.130452        -1.377345        -0.842115
 H         0.962840        -0.379834        -0.598841
 H         2.591220        -0.434045         1.352808
 H         2.054286         2.376823         0.720899
 H         3.575648         2.978246         0.042924
