19
Iteration:    28charge 0 multiplicity 1
 C         0.846092         2.847684        -1.610666
 C         2.012478         1.936473        -1.303916
 C         2.985841         1.486507        -2.397511
 C         3.201947         0.222383        -1.538682
 O         3.809224        -1.135119        -1.567725
 C         1.866972         0.428599        -0.936207
 C         2.932314         0.687587         0.050470
 O         3.421563         0.116727         1.178140
 C         2.799058         2.264826         0.074173
 H         0.273615         3.033557        -0.679877
 H         1.244624         3.828687        -1.883154
 H         0.213780         2.323209        -2.340188
 H         2.490436         1.239050        -3.363035
 H         3.806498         2.231094        -2.407363
 H         4.751522        -1.073696        -1.668324
 H         1.000998        -0.263733        -0.810252
 H         3.319712        -0.824412         1.111256
 H         1.873541         2.372176         0.685356
 H         3.834312         2.869709         0.157069
