19
Iteration:  4602charge 0 multiplicity 1
 C         0.864316         2.869346        -1.745331
 C         1.989929         1.935319        -1.331303
 C         3.051498         1.495505        -2.235631
 C         3.160166         0.237962        -1.381008
 O         3.921440        -0.961715        -1.591248
 C         1.711759         0.317180        -0.878715
 C         2.910209         0.727321         0.026367
 O         3.461155        -0.059553         0.999100
 C         2.793709         2.233257         0.065434
 H         0.214951         3.293456        -1.027323
 H         1.192153         3.797467        -2.267043
 H         0.376469         2.373085        -2.559140
 H         2.685938         1.291391        -3.258186
 H         3.909704         2.055846        -2.428129
 H         4.227452        -1.289946        -0.677904
 H         0.855052        -0.419530        -0.808395
 H         2.806282         0.010936         1.763175
 H         2.283396         2.600525         1.028825
 H         3.791644         2.761207         0.080423
