19
Iteration:  1473charge 0 multiplicity 1
 C         0.860657         2.804943        -1.726182
 C         2.044672         2.003469        -1.253723
 C         3.012520         1.350623        -2.386653
 C         3.167654         0.238229        -1.457808
 O         3.807896        -0.984908        -1.585236
 C         1.781104         0.532071        -0.826911
 C         3.079868         0.735282         0.092166
 O         3.437870        -0.039260         1.191724
 C         2.755251         2.197492         0.086305
 H         0.022655         2.802352        -0.973396
 H         1.077066         3.849080        -2.067368
 H         0.290143         2.406521        -2.550966
 H         2.410946         1.093435        -3.256052
 H         3.904321         1.801432        -2.819238
 H         3.792609        -1.135025        -2.558305
 H         0.772933         0.001730        -0.724604
 H         4.310087        -0.340837         0.866763
 H         1.877191         2.372766         0.770759
 H         3.433830         3.118267        -0.082271
