19
Iteration:  1246
 C         0.916712         2.857787        -1.773091
 C         2.031463         1.961774        -1.274494
 C         3.050649         1.344897        -2.300801
 C         3.048463         0.204484        -1.365158
 O         3.826721        -0.942100        -1.565811
 C         1.667767         0.433404        -0.793528
 C         2.839997         0.713983         0.100709
 O         3.658929        -0.009166         1.042734
 C         2.683008         2.234429         0.054193
 H         0.051750         3.052756        -1.114928
 H         1.216645         3.803279        -2.271732
 H         0.439167         2.392201        -2.597920
 H         2.606658         0.911116        -3.289035
 H         4.020077         1.825199        -2.291565
 H         4.787853        -0.918682        -1.663153
 H         0.752387         0.046099        -1.007183
 H         4.236556        -0.638712         0.613731
 H         2.011759         2.705558         0.776643
 H         3.486236         2.960574         0.069582
