19
Iteration:  3785charge 0 multiplicity 1
 C         0.894416         2.820311        -1.666010
 C         1.970249         1.884629        -1.299270
 C         3.021387         1.375417        -2.280337
 C         3.162375         0.196300        -1.377665
 O         3.921356        -0.915076        -1.677329
 C         1.721600         0.464555        -0.841041
 C         2.950751         0.756212         0.075711
 O         3.369325        -0.094416         1.084756
 C         2.762089         2.309476        -0.055668
 H         0.375026         3.115431        -0.699978
 H         1.394119         3.672372        -2.152189
 H         0.257326         2.437398        -2.487866
 H         2.778508         1.006972        -3.264505
 H         3.968873         1.982159        -2.375986
 H         3.782389        -1.346761        -0.788910
 H         0.834697        -0.125974        -0.832414
 H         4.167942        -0.029357         1.592164
 H         2.392846         2.957010         0.789090
 H         3.835031         2.725393        -0.354223
