19
Iteration:  1050charge 0 multiplicity 1
 C         0.873558         2.876438        -1.692878
 C         1.882831         1.862616        -1.314215
 C         3.041000         1.424984        -2.371198
 C         3.179909         0.192969        -1.464342
 O         3.981385        -0.930543        -1.641844
 C         1.736943         0.437106        -0.767302
 C         2.918189         0.685967        -0.010245
 O         3.466697        -0.024444         1.164154
 C         2.802807         2.215229        -0.037063
 H         0.279331         3.191615        -0.811039
 H         1.128873         3.877837        -2.123519
 H         0.150139         2.470436        -2.359470
 H         2.525101         1.277644        -3.379796
 H         3.891639         2.106107        -2.285336
 H         4.003854        -1.592226        -0.978703
 H         0.799922        -0.115351        -0.532871
 H         3.246498         0.388715         1.999981
 H         2.142490         2.507346         0.765390
 H         3.687980         2.747052        -0.155339
