19
Iteration:  2614
 C         0.860945         2.918273        -1.756853
 C         1.964657         1.966178        -1.279872
 C         3.044276         1.397999        -2.320767
 C         3.198519         0.208799        -1.320238
 O         3.692674        -1.023991        -1.742055
 C         1.776638         0.425466        -0.789957
 C         3.019927         0.742833         0.079196
 O         3.576395        -0.056395         1.083564
 C         2.761779         2.237649         0.003435
 H         0.083631         2.992371        -1.054891
 H         1.372293         3.899401        -1.836631
 H         0.395366         2.734896        -2.698344
 H         2.578844         0.938377        -3.213543
 H         3.987761         1.926416        -2.368705
 H         4.332213        -1.333088        -1.081173
 H         0.859546        -0.069462        -0.682966
 H         3.075825        -0.090191         1.899489
 H         2.164717         2.499456         0.989809
 H         3.565204         2.945802        -0.187245
