19
Iteration:  4762
 C         0.890502         2.847879        -1.789514
 C         1.946680         1.893508        -1.292011
 C         3.020830         1.451561        -2.275659
 C         3.091810         0.266725        -1.387506
 O         3.987548        -0.931603        -1.569984
 C         1.731677         0.390312        -0.848700
 C         3.031466         0.743925         0.043111
 O         3.476940        -0.032816         1.080664
 C         2.725794         2.182006         0.003234
 H         0.438096         3.184871        -0.852284
 H         1.417269         3.760775        -2.157778
 H         0.156952         2.572759        -2.595218
 H         2.715946         1.549570        -3.324615
 H         3.896038         2.154717        -2.206734
 H         3.374156        -1.717612        -1.348793
 H         0.916644        -0.267910        -0.602962
 H         2.744969        -0.684760         1.351771
 H         2.239745         2.648148         0.830157
 H         3.653622         2.847804        -0.082805
