19
Iteration:  1545charge 0 multiplicity 1
 C         0.929959         2.868042        -1.685551
 C         2.003721         1.999380        -1.322161
 C         3.045831         1.350678        -2.427496
 C         3.165533         0.196788        -1.422265
 O         3.883400        -0.893578        -1.702773
 C         1.764213         0.442363        -0.745646
 C         2.926520         0.696351         0.079114
 O         3.412392        -0.031582         1.169583
 C         2.742286         2.188508         0.022083
 H         0.255292         2.937731        -0.834263
 H         1.171198         3.783005        -2.181091
 H         0.159365         2.391428        -2.367244
 H         2.311632         1.192962        -3.268858
 H         3.930879         1.987491        -2.674512
 H         3.776619        -1.442765        -0.864611
 H         0.871086        -0.060654        -0.663704
 H         4.380688        -0.158278         1.009259
 H         2.091617         2.406987         0.889310
 H         3.622900         2.790143         0.125146
