19
Iteration:   547charge 0 multiplicity 1
 C         0.781960         2.810599        -1.655868
 C         1.967345         1.964954        -1.286745
 C         3.098532         1.383533        -2.397495
 C         3.159600         0.154489        -1.436513
 O         3.945521        -0.945455        -1.640364
 C         1.728719         0.485197        -0.740605
 C         2.991097         0.796584        -0.016958
 O         3.413555        -0.085602         1.024478
 C         2.807557         2.219131         0.004835
 H         0.234379         2.955626        -0.711924
 H         1.166218         3.818135        -2.036584
 H         0.145299         2.349729        -2.426452
 H         2.639204         1.351528        -3.355690
 H         4.008322         2.009402        -2.362907
 H         4.183643        -1.196894        -0.707791
 H         0.989341         0.088198        -0.224593
 H         2.809407        -0.052448         1.762874
 H         2.214528         2.416816         0.878416
 H         3.691814         2.906461        -0.006421
