19
Iteration:  3238charge 0 multiplicity 1
 C         0.901772         2.783940        -1.764685
 C         2.019455         1.982369        -1.258731
 C         3.079263         1.479595        -2.303293
 C         3.031675         0.215824        -1.396288
 O         3.796995        -0.992075        -1.621925
 C         1.725801         0.530452        -0.878132
 C         2.912513         0.702645         0.065919
 O         3.567815        -0.065804         1.010215
 C         2.791278         2.147445         0.094545
 H         0.039012         2.780394        -1.068458
 H         1.232108         3.811081        -2.003863
 H         0.474121         2.272974        -2.654737
 H         2.674799         1.413923        -3.295167
 H         4.078182         1.981466        -2.407897
 H         4.490170        -1.145257        -0.941469
 H         0.734234        -0.008335        -0.836537
 H         3.340323         0.384208         1.875365
 H         2.115264         2.379600         0.961041
 H         3.683407         2.871162         0.057586
