19
Iteration:  4567charge 0 multiplicity 1
 C         0.790502         2.848466        -1.723484
 C         2.054227         1.997209        -1.419668
 C         3.120031         1.400959        -2.325172
 C         3.222393         0.212886        -1.334838
 O         3.923684        -0.883556        -1.701869
 C         1.736831         0.483966        -0.799829
 C         2.916058         0.761511         0.036284
 O         3.320337        -0.259941         1.191093
 C         2.789357         2.268305         0.018028
 H         0.069961         2.835793        -0.958367
 H         1.049295         3.831868        -2.160719
 H         0.267689         2.261159        -2.509796
 H         2.592017         0.924728        -3.179693
 H         3.919291         2.019366        -2.545069
 H         4.521552        -1.075462        -0.916900
 H         0.760495        -0.096137        -0.775124
 H         3.892661         0.341734         1.771788
 H         2.041809         2.613997         0.757281
 H         3.666549         2.881838        -0.112581
