19
Iteration:   990
 C         0.830129         2.776129        -1.819634
 C         1.935739         1.933580        -1.282871
 C         3.038425         1.558020        -2.261892
 C         3.175883         0.187353        -1.467691
 O         3.720253        -1.030224        -1.676351
 C         1.792879         0.472653        -0.783532
 C         3.038564         0.685446         0.006106
 O         3.526490         0.018153         1.233449
 C         2.852586         2.232218        -0.008860
 H        -0.042421         2.561597        -1.209689
 H         1.068565         3.791715        -2.058291
 H         0.635431         2.191639        -2.796651
 H         2.703576         1.524646        -3.278016
 H         3.889729         2.241861        -2.237106
 H         4.473243        -0.984076        -1.070304
 H         0.909356        -0.257785        -0.506294
 H         2.861466        -0.624381         1.448015
 H         2.182543         2.444166         0.856522
 H         3.641881         3.087425        -0.024276
