19
Iteration:  1553
 C         0.903707         2.837999        -1.726237
 C         2.048391         1.985040        -1.231780
 C         3.060195         1.365853        -2.327669
 C         3.125425         0.215378        -1.461451
 O         3.869870        -0.968557        -1.709778
 C         1.740235         0.420613        -0.756452
 C         3.007034         0.730711        -0.004517
 O         3.400005         0.017072         1.088264
 C         2.692913         2.187587         0.102364
 H         0.307497         3.165717        -0.875959
 H         1.290401         3.834709        -2.065861
 H         0.345088         2.404708        -2.596124
 H         2.485373         1.014752        -3.102294
 H         3.870400         1.911270        -2.719623
 H         3.961465        -1.430512        -0.842749
 H         0.831398        -0.072771        -0.462040
 H         4.357240         0.058232         0.937086
 H         2.000482         2.440774         0.935274
 H         3.535255         2.906281         0.217635
