19
Iteration:  4316
 C         0.829290         2.890066        -1.863694
 C         1.945660         1.967033        -1.274919
 C         3.145230         1.498442        -2.188259
 C         3.114354         0.157838        -1.357649
 O         3.894863        -0.983811        -1.593777
 C         1.743429         0.437349        -0.887152
 C         3.001812         0.715910         0.091380
 O         3.527231        -0.039428         1.077770
 C         2.695082         2.188005         0.048484
 H         0.022640         2.947039        -1.138781
 H         1.215875         3.889422        -2.249177
 H         0.371450         2.392433        -2.757743
 H         2.912738         1.142451        -3.148539
 H         4.025747         2.184290        -2.316770
 H         3.790967        -1.430553        -2.481596
 H         0.963110        -0.333419        -0.585022
 H         2.930929        -0.150181         1.857591
 H         2.019771         2.535715         0.871211
 H         3.542988         2.866724         0.010020
