19
Iteration:  2763
 C         0.921827         2.855284        -1.760952
 C         1.973867         1.938702        -1.290325
 C         3.086655         1.396280        -2.251346
 C         3.052420         0.218577        -1.320580
 O         3.772706        -0.933537        -1.684403
 C         1.715334         0.433296        -0.765550
 C         2.953181         0.703945         0.090871
 O         3.610489        -0.068080         0.944997
 C         2.759526         2.268325         0.041838
 H         0.226852         3.130814        -0.896207
 H         1.438749         3.847891        -2.056598
 H         0.429139         2.517665        -2.669904
 H         2.888709         1.019246        -3.260588
 H         4.022656         1.999449        -2.297101
 H         3.662035        -1.698275        -1.041479
 H         0.858020        -0.214519        -0.584616
 H         3.396661         0.200325         1.824422
 H         2.000154         2.383420         0.794220
 H         3.634263         2.994136        -0.299277
