19
Iteration:  4301
 C         0.834799         2.842701        -1.807245
 C         1.927815         1.890312        -1.318136
 C         3.139708         1.494580        -2.323947
 C         3.206876         0.307227        -1.426726
 O         3.855988        -0.918533        -1.507454
 C         1.778963         0.340651        -0.821623
 C         2.941091         0.673640         0.030647
 O         3.523860        -0.047903         1.145567
 C         2.749938         2.192520         0.051764
 H         0.130054         3.329120        -1.134155
 H         1.355302         3.710147        -2.109975
 H         0.368295         2.418902        -2.700065
 H         2.728720         1.552372        -3.366090
 H         4.079107         2.002998        -2.162260
 H         3.314138        -1.352570        -2.201424
 H         0.881501        -0.168995        -0.873976
 H         2.713707        -0.463100         1.547506
 H         2.044451         2.466454         0.865577
 H         3.608329         2.993624        -0.064240
