19
Iteration:  4271charge 0 multiplicity 1
 C         0.843975         2.872029        -1.701199
 C         1.986325         1.984065        -1.303425
 C         3.076782         1.388480        -2.346474
 C         3.288952         0.258050        -1.345363
 O         3.963878        -0.969675        -1.581293
 C         1.789014         0.381444        -0.885131
 C         2.893559         0.715040         0.042423
 O         3.424623        -0.019064         1.162688
 C         2.731426         2.246677         0.026994
 H         0.164664         3.140582        -0.872348
 H         1.217243         3.782047        -2.256721
 H         0.220000         2.445708        -2.559735
 H         2.558788         1.264497        -3.279336
 H         4.034941         1.926959        -2.672553
 H         3.222862        -1.497768        -1.978535
 H         0.798506        -0.079084        -0.921324
 H         2.985915        -0.878723         1.105352
 H         1.941672         2.522934         0.788345
 H         3.574097         2.974706         0.119634
