19
Iteration:  4610
 C         0.852926         2.915930        -1.806229
 C         1.906673         2.007579        -1.239996
 C         3.092476         1.519658        -2.260449
 C         3.179963         0.194145        -1.347456
 O         3.925921        -1.004973        -1.575340
 C         1.710054         0.304269        -0.898592
 C         2.936784         0.693055         0.017052
 O         3.493785        -0.011749         0.982610
 C         2.781756         2.231914         0.047360
 H         0.241651         3.195955        -0.936158
 H         1.421546         3.824694        -2.157662
 H         0.195681         2.418024        -2.589976
 H         2.543316         1.254928        -3.199627
 H         4.020516         2.080568        -2.354598
 H         4.161067        -1.415960        -0.671509
 H         0.845345        -0.441266        -0.678942
 H         2.821595        -0.362022         1.618970
 H         2.096331         2.418823         0.848058
 H         3.656600         2.824864         0.073785
