19
Iteration:  1908
 C         0.869231         2.797547        -1.769934
 C         2.020589         1.982588        -1.253627
 C         3.076170         1.474041        -2.322465
 C         3.213745         0.292910        -1.353344
 O         3.685107        -1.006994        -1.670577
 C         1.801070         0.455550        -0.875171
 C         2.915386         0.658378         0.061948
 O         3.626510        -0.020252         1.037004
 C         2.722773         2.187402         0.116963
 H         0.117131         3.056859        -0.971602
 H         1.209553         3.801580        -1.967385
 H         0.372247         2.227068        -2.524049
 H         2.689104         1.289750        -3.343266
 H         3.911330         2.186386        -2.587550
 H         3.955414        -1.384013        -0.841068
 H         0.826519        -0.118694        -1.061654
 H         3.094203        -0.225011         1.850992
 H         2.003640         2.549461         0.933842
 H         3.653532         2.798345         0.007996
