19
Iteration:  4716charge 0 multiplicity 1
 C         0.852241         2.722061        -1.704624
 C         1.989809         1.887347        -1.356995
 C         3.164356         1.404596        -2.259138
 C         3.251726         0.218664        -1.366295
 O         3.810890        -0.952648        -1.829381
 C         1.819526         0.496275        -0.828803
 C         2.913015         0.744603         0.057710
 O         3.354286        -0.047020         1.146705
 C         2.763818         2.329214         0.087147
 H         0.172176         2.718552        -0.819004
 H         1.137002         3.714113        -1.955948
 H         0.334863         2.323811        -2.595737
 H         2.817910         1.106932        -3.218307
 H         4.015785         2.072669        -2.572100
 H         4.228454        -1.503028        -1.125469
 H         0.950844        -0.263090        -0.841185
 H         3.161687         0.243528         2.070527
 H         2.095216         2.757820         0.866538
 H         3.628331         3.116706         0.172855
