19
Iteration:   367charge 0 multiplicity 1
 C         0.827945         2.891120        -1.674175
 C         1.900301         1.875220        -1.277964
 C         3.098546         1.463784        -2.310654
 C         3.176034         0.220859        -1.401716
 O         3.825429        -0.960150        -1.701062
 C         1.773071         0.401217        -0.805740
 C         2.982823         0.731235         0.013131
 O         3.480551        -0.036121         1.175405
 C         2.814419         2.237897        -0.055152
 H         0.064688         3.108451        -0.844987
 H         1.253323         3.868944        -2.017962
 H         0.174746         2.558271        -2.533502
 H         2.601580         1.126834        -3.263081
 H         4.008318         2.111559        -2.528512
 H         4.529517        -1.033853        -0.994421
 H         0.956138        -0.279357        -0.602020
 H         2.891465        -0.814164         1.404493
 H         2.245056         2.610721         0.784152
 H         3.743371         2.755404        -0.231000
