19
Iteration:  1860charge 0 multiplicity 1
 C         0.892521         2.924762        -1.638961
 C         1.930046         1.888992        -1.294454
 C         2.987012         1.442863        -2.307203
 C         3.111832         0.167285        -1.441366
 O         4.022397        -0.951928        -1.653304
 C         1.697662         0.449674        -0.767328
 C         2.949859         0.709038        -0.062375
 O         3.423313        -0.088418         1.064512
 C         2.824691         2.201297        -0.007505
 H         0.432777         3.529256        -0.841435
 H         1.411825         3.775996        -2.143364
 H         0.080362         2.407801        -2.248508
 H         2.523809         1.243836        -3.295715
 H         3.913320         1.973751        -2.668548
 H         4.449789        -0.988742        -0.746757
 H         0.888413        -0.068545        -0.285538
 H         2.753073        -0.030774         1.734379
 H         2.245630         2.501364         0.833163
 H         3.690362         2.814384        -0.079862
