19
Iteration:  2248charge 0 multiplicity 1
 C         0.792846         2.875223        -1.748719
 C         1.979559         1.958131        -1.340334
 C         3.161662         1.433879        -2.200947
 C         3.163887         0.205458        -1.330572
 O         3.683301        -1.015656        -1.671632
 C         1.748916         0.444483        -0.816625
 C         2.967893         0.736784         0.069798
 O         3.649583        -0.079925         0.991920
 C         2.698726         2.250292         0.013200
 H         0.298161         3.037090        -0.778235
 H         1.204709         3.812929        -2.191034
 H         0.338813         2.542493        -2.676174
 H         3.090042         1.306598        -3.285229
 H         4.041556         2.043406        -2.070114
 H         4.441112        -1.370947        -1.190710
 H         0.775443        -0.005264        -0.608150
 H         3.046676        -0.146543         1.766492
 H         1.926844         2.457001         0.742290
 H         3.588612         2.924364         0.025798
