19
Iteration:  4573
 C         0.811729         2.804281        -1.713080
 C         2.066545         1.959077        -1.407346
 C         3.134224         1.451080        -2.351678
 C         3.182627         0.267564        -1.308891
 O         3.923701        -0.871607        -1.685724
 C         1.668774         0.468201        -0.811678
 C         2.931679         0.724792         0.078141
 O         3.347980        -0.262654         1.191302
 C         2.793705         2.256738        -0.041909
 H        -0.025041         3.005194        -0.897664
 H         1.089980         3.750935        -2.194726
 H         0.201433         2.389198        -2.556112
 H         2.599885         1.067704        -3.218462
 H         4.162375         1.900396        -2.805922
 H         4.538362        -1.064656        -0.917538
 H         0.735233         0.019919        -0.781744
 H         3.729269         0.311123         1.850852
 H         2.115886         2.535910         0.762233
 H         3.672913         2.971927        -0.037221
