19
Iteration:  4488
 C         0.910993         2.844282        -1.857943
 C         1.964018         1.940001        -1.293965
 C         3.118457         1.416524        -2.233963
 C         3.172701         0.254751        -1.290906
 O         3.936679        -0.966665        -1.634618
 C         1.721028         0.431230        -0.882355
 C         2.878543         0.747727         0.151090
 O         3.520985        -0.029372         1.107620
 C         2.588949         2.204018         0.076011
 H         0.192894         2.960852        -1.055893
 H         1.191730         3.884611        -1.951963
 H         0.589355         2.389604        -2.821250
 H         2.831676         1.296863        -3.296155
 H         4.130935         1.725856        -2.186778
 H         3.361072        -1.392478        -2.286498
 H         0.861960        -0.178427        -0.795520
 H         4.380255        -0.332594         0.692519
 H         1.756870         2.486117         0.697625
 H         3.366818         2.963701         0.050625
