19
Iteration:  1516
 C         0.780498         2.900136        -1.653883
 C         1.856722         1.911332        -1.300295
 C         3.057063         1.390695        -2.262919
 C         3.227066         0.225551        -1.318990
 O         3.946681        -0.902080        -1.654865
 C         1.789359         0.399775        -0.842716
 C         2.951022         0.705542         0.061533
 O         3.333592        -0.100740         1.163293
 C         2.898236         2.305685        -0.154164
 H         0.247404         3.169343        -0.686056
 H         1.273879         3.820716        -2.080264
 H         0.036898         2.482106        -2.335259
 H         2.564331         1.153007        -3.303436
 H         3.863102         2.116369        -2.591291
 H         3.378282        -1.645404        -1.471959
 H         0.851222        -0.276665        -0.805983
 H         4.270172        -0.256506         1.232256
 H         2.647848         2.783890         0.809064
 H         3.900129         2.562727        -0.621558
