19
Iteration:  4328
 C         0.901201         2.815642        -1.874307
 C         1.944042         1.971356        -1.308545
 C         3.110052         1.382018        -2.195947
 C         3.244882         0.210659        -1.338830
 O         3.899429        -0.994706        -1.622903
 C         1.707990         0.465107        -0.828087
 C         2.914053         0.686727         0.018540
 O         3.540616        -0.078425         1.095698
 C         2.681025         2.279630         0.056518
 H         0.110496         2.918106        -1.106189
 H         1.141342         3.947336        -1.952400
 H         0.450683         2.379107        -2.786974
 H         2.618377         1.451191        -3.096344
 H         3.952942         2.120012        -2.066073
 H         3.661369        -0.988658        -2.578119
 H         0.693500        -0.055109        -0.685064
 H         3.082104         0.322693         1.890227
 H         1.934410         2.376371         0.872845
 H         3.527789         2.883208         0.209979
