19
Iteration:  4428charge 0 multiplicity 1
 C         0.847233         2.796090        -1.760443
 C         1.957228         1.961930        -1.352837
 C         3.087349         1.411404        -2.334824
 C         3.266454         0.303385        -1.349299
 O         3.986168        -0.894203        -1.510373
 C         1.732746         0.494397        -0.878697
 C         2.881746         0.672185         0.106009
 O         3.392809        -0.069597         1.138167
 C         2.757905         2.206046         0.013430
 H         0.208278         2.782428        -0.852745
 H         1.188267         3.787282        -2.121883
 H         0.080532         2.424073        -2.421599
 H         2.754901         1.177301        -3.296784
 H         4.073123         1.930874        -2.335686
 H         3.583584        -1.367135        -2.217373
 H         0.868307        -0.113244        -0.923136
 H         3.504255        -0.977442         0.850486
 H         1.977396         2.638350         0.678622
 H         3.577033         2.927666        -0.093562
