19
Iteration:  2385
 C         0.870865         2.893314        -1.738639
 C         1.969987         1.921003        -1.255417
 C         3.114302         1.454710        -2.265675
 C         3.145215         0.215521        -1.424270
 O         3.784507        -1.019059        -1.637975
 C         1.740310         0.451816        -0.819107
 C         3.011252         0.732053         0.033635
 O         3.523237        -0.110873         0.978203
 C         2.769896         2.274709         0.052531
 H         0.380907         3.255973        -0.841234
 H         0.985617         3.712767        -2.493101
 H         0.065298         2.297419        -2.291988
 H         2.734174         1.157822        -3.263721
 H         3.994876         2.132724        -2.466570
 H         4.112468        -1.142839        -0.741939
 H         0.928575        -0.120214        -0.305057
 H         3.099729         0.125500         1.812828
 H         2.013548         2.297919         0.781979
 H         3.544869         2.966077        -0.025103
