19
Iteration:  2426
 C         0.901488         2.918975        -1.830687
 C         1.980149         1.995032        -1.304334
 C         3.025764         1.484325        -2.307640
 C         3.123355         0.192356        -1.405038
 O         3.714854        -0.972412        -1.660924
 C         1.765439         0.387324        -0.801479
 C         2.926177         0.638644         0.098118
 O         3.629787        -0.002485         1.112385
 C         2.763821         2.145640         0.066059
 H         0.088033         3.214092        -1.159660
 H         1.538100         3.836777        -2.127559
 H         0.419574         2.465095        -2.671279
 H         2.358461         1.273815        -3.191074
 H         3.809300         2.158548        -2.467278
 H         4.627872        -1.041611        -1.311233
 H         0.918844        -0.257196        -0.497634
 H         3.187580        -0.580064         1.755667
 H         2.110592         2.577899         0.915275
 H         3.832240         2.729660        -0.033790
