19
Iteration:  2752
 C         0.962559         2.880390        -1.809964
 C         1.953293         1.890621        -1.248899
 C         3.055497         1.420594        -2.226601
 C         3.079960         0.171152        -1.403039
 O         3.825552        -0.956884        -1.675354
 C         1.628717         0.468291        -0.720510
 C         3.032674         0.721734         0.014670
 O         3.645520        -0.100189         1.013167
 C         2.717936         2.239913         0.017872
 H         0.189758         3.189023        -1.025913
 H         1.511400         3.817053        -2.155360
 H         0.342745         2.481685        -2.618999
 H         2.544078         1.373055        -3.172975
 H         3.947885         2.075829        -2.267463
 H         3.404741        -1.657724        -1.106613
 H         0.681709        -0.025581        -0.670284
 H         3.410459         0.296844         1.869056
 H         2.014555         2.650609         0.736350
 H         3.498425         3.118391         0.134364
