19
Iteration:  4817
 C         0.932226         2.843961        -1.814146
 C         1.899989         1.960189        -1.238799
 C         3.060243         1.458153        -2.322057
 C         3.183293         0.262199        -1.400771
 O         3.836517        -0.988981        -1.588223
 C         1.738087         0.400603        -0.857188
 C         2.974435         0.705261         0.100466
 O         3.553778        -0.032070         1.149856
 C         2.698678         2.149373         0.011781
 H         0.059193         3.065382        -1.227165
 H         1.339080         3.857374        -1.915568
 H         0.668706         2.489354        -2.829088
 H         2.473943         1.213541        -3.202748
 H         3.958210         2.079328        -2.491065
 H         4.018574        -1.002192        -2.559331
 H         0.959614        -0.281684        -0.782376
 H         3.059459         0.344828         1.918828
 H         1.970809         2.330170         0.810644
 H         3.649309         2.805672         0.166073
