19
Iteration:  2773
 C         0.880404         2.893886        -1.729168
 C         1.972344         1.949150        -1.325764
 C         3.113163         1.352261        -2.272318
 C         3.144492         0.222732        -1.320162
 O         3.719517        -0.934631        -1.695890
 C         1.744981         0.417489        -0.800595
 C         2.878149         0.788042         0.102207
 O         3.612704        -0.073022         0.975810
 C         2.765158         2.212831         0.008464
 H         0.065068         3.003869        -0.931883
 H         1.278845         3.897703        -1.977945
 H         0.359409         2.457136        -2.586395
 H         2.802027         1.060866        -3.278702
 H         4.110222         1.907003        -2.339553
 H         3.922608        -1.473086        -0.892987
 H         0.963349        -0.297384        -0.616710
 H         3.311957        -0.069931         1.888056
 H         2.346716         2.735565         0.883570
 H         3.778611         2.792289         0.027333
