19
Iteration:   336
 C         0.909408         2.833632        -1.735326
 C         2.033600         1.974475        -1.229654
 C         2.997647         1.323852        -2.376410
 C         3.117236         0.241646        -1.391626
 O         3.892911        -0.863125        -1.737548
 C         1.721319         0.471234        -0.832984
 C         2.906671         0.675432         0.082336
 O         3.585009        -0.045789         1.127356
 C         2.762092         2.215048         0.109465
 H         0.021092         2.978251        -1.068889
 H         1.187992         3.840515        -2.088502
 H         0.438033         2.404091        -2.654948
 H         2.152791         1.043873        -3.090759
 H         3.908834         1.852815        -2.973380
 H         4.106562        -1.293764        -0.888143
 H         0.719031        -0.116368        -0.803033
 H         2.893961        -0.413268         1.666904
 H         1.985922         2.546957         0.830061
 H         3.816230         2.807985        -0.059548
