19
Iteration:  2715
 C         0.932467         2.950897        -1.811457
 C         1.960554         1.897211        -1.291594
 C         2.990504         1.372524        -2.244915
 C         3.207990         0.252086        -1.327256
 O         3.735283        -0.920383        -1.765265
 C         1.741780         0.374270        -0.728067
 C         2.996331         0.744577         0.070067
 O         3.594724        -0.031769         1.086271
 C         2.774387         2.230980         0.039403
 H         0.299934         3.310197        -1.001673
 H         1.410277         3.730690        -2.329217
 H         0.311707         2.410605        -2.594102
 H         2.363419         1.004686        -3.109630
 H         3.972020         1.937661        -2.611387
 H         3.667339        -1.578615        -1.063480
 H         0.954713        -0.371592        -0.982241
 H         2.909259        -0.130211         1.810408
 H         2.074851         2.338751         0.904001
 H         3.755403         2.645878        -0.018624
