19
Iteration:   185
 C         0.883395         2.815638        -1.711259
 C         2.038540         1.961868        -1.247377
 C         2.933376         1.422223        -2.322558
 C         3.134615         0.152603        -1.460148
 O         3.952675        -0.962738        -1.699918
 C         1.697736         0.478430        -0.846155
 C         2.954227         0.720031         0.060706
 O         3.509708        -0.056878         1.098240
 C         2.809290         2.266854         0.083788
 H         0.084878         2.954469        -0.961909
 H         1.165100         3.854489        -2.019928
 H         0.432346         2.316677        -2.609755
 H         2.267425         1.099108        -3.115962
 H         3.697206         2.093149        -2.736015
 H         4.146819        -1.375364        -0.789731
 H         0.697216        -0.074376        -1.035097
 H         3.138262         0.179547         1.933143
 H         2.088987         2.491616         0.928247
 H         3.720625         2.887958        -0.038512
