19
Iteration:   556
 C         0.789593         2.824433        -1.675231
 C         2.012397         1.932405        -1.336180
 C         3.059630         1.380618        -2.325767
 C         3.112650         0.244639        -1.460579
 O         3.933631        -0.963592        -1.671676
 C         1.774555         0.461943        -0.783391
 C         3.021936         0.762270         0.055750
 O         3.437017        -0.101257         1.045277
 C         2.796238         2.299727         0.039717
 H         0.169964         2.883109        -0.733649
 H         1.025135         3.889270        -2.060301
 H         0.101830         2.318344        -2.436696
 H         2.646437         1.135253        -3.274723
 H         3.995112         1.769135        -2.438354
 H         4.082454        -1.384812        -0.787906
 H         0.860379        -0.111977        -0.412673
 H         2.839813         0.045216         1.770803
 H         2.109037         2.607909         0.766054
 H         3.684737         2.940582         0.062873
