19
Iteration:  3997charge 0 multiplicity 1
 C         0.799258         2.843320        -1.871533
 C         1.936301         1.937034        -1.349800
 C         3.038857         1.466301        -2.312554
 C         3.292639         0.299807        -1.328333
 O         3.734472        -1.069737        -1.704419
 C         1.815355         0.380431        -0.732510
 C         3.005738         0.781035         0.057290
 O         3.400811        -0.104088         1.150308
 C         2.800764         2.263700         0.065254
 H         0.212439         3.241704        -1.069794
 H         1.259559         3.801580        -2.086631
 H         0.233975         2.533554        -2.759478
 H         2.578392         1.139203        -3.270163
 H         3.879349         2.155603        -2.406179
 H         4.483260        -1.297227        -1.091717
 H         0.846710        -0.156543        -0.780257
 H         4.340406         0.147609         1.495457
 H         2.211980         2.589894         0.990033
 H         3.752146         2.884843         0.125903
