19
Iteration:  3367
 C         0.861474         2.742089        -1.780972
 C         2.014169         1.955534        -1.192137
 C         3.151863         1.395889        -2.329624
 C         3.169224         0.262674        -1.386507
 O         3.737666        -0.935613        -1.716844
 C         1.797326         0.501726        -0.877179
 C         3.025739         0.813980         0.076988
 O         3.404181        -0.123135         1.126762
 C         2.749140         2.266522         0.084751
 H         0.226050         2.896514        -0.966608
 H         1.234544         3.730939        -2.195269
 H         0.430611         2.122251        -2.588800
 H         2.570347         1.168439        -3.236552
 H         4.112393         1.946383        -2.523478
 H         3.518532        -1.502443        -0.983020
 H         0.992731        -0.325555        -0.758906
 H         4.315313         0.129890         1.265947
 H         1.921436         2.377694         0.836528
 H         3.418493         3.065260         0.063926
