19
Iteration:  1655charge 0 multiplicity 1
 C         0.781441         2.946236        -1.646593
 C         1.904022         1.848750        -1.368195
 C         3.077833         1.426202        -2.294449
 C         3.182466         0.224298        -1.398112
 O         3.795783        -0.967786        -1.651313
 C         1.858246         0.417123        -0.825653
 C         3.061103         0.735160         0.047093
 O         3.450852        -0.043975         1.138832
 C         2.821847         2.266777        -0.069990
 H         0.266423         3.076763        -0.654463
 H         1.407502         3.831724        -1.863098
 H        -0.056557         2.685206        -2.365702
 H         2.639521         1.197915        -3.267211
 H         3.951998         1.994837        -2.523247
 H         4.271777        -1.396066        -0.890413
 H         0.932716        -0.247586        -0.591729
 H         2.830964        -0.817133         1.190686
 H         2.156040         2.457965         0.815553
 H         3.653558         2.960123        -0.366466
