19
Iteration:  1656
 C         0.779240         2.947021        -1.645804
 C         1.904493         1.839526        -1.360556
 C         3.081963         1.424329        -2.294700
 C         3.186234         0.232317        -1.383651
 O         3.797160        -0.966245        -1.654698
 C         1.856037         0.417691        -0.831355
 C         3.057067         0.743526         0.046456
 O         3.447291        -0.047866         1.141464
 C         2.825652         2.265265        -0.078535
 H         0.271857         3.079143        -0.662888
 H         1.415766         3.806948        -1.875053
 H        -0.042865         2.706897        -2.342552
 H         2.586337         1.185391        -3.265573
 H         3.943946         2.008439        -2.527429
 H         4.248520        -1.394215        -0.906721
 H         0.941572        -0.239668        -0.616152
 H         2.864666        -0.820465         1.186483
 H         2.179390         2.456308         0.786139
 H         3.635005         2.931141        -0.372794
