19
Iteration:  2494
 C         0.793902         2.840048        -1.616321
 C         2.004883         1.965151        -1.323039
 C         3.072631         1.399695        -2.375895
 C         3.159736         0.256255        -1.380226
 O         3.756024        -0.992773        -1.657569
 C         1.748378         0.521601        -0.837911
 C         2.965570         0.692867         0.068380
 O         3.502958        -0.013911         1.165444
 C         2.867808         2.174738        -0.088587
 H         0.028790         2.886420        -0.845569
 H         1.406192         3.821675        -1.582229
 H         0.229739         2.671034        -2.564273
 H         2.454255         1.019488        -3.214845
 H         4.002824         1.863321        -2.570532
 H         4.507752        -1.108579        -1.009792
 H         0.982394        -0.256027        -1.036211
 H         2.807667        -0.712370         1.359473
 H         2.493364         2.786716         0.763792
 H         3.827358         2.860552        -0.166432
