19
Iteration:  2861charge 0 multiplicity 1
 C         0.872639         2.885759        -1.725722
 C         1.998586         1.962211        -1.367776
 C         3.074548         1.430923        -2.323866
 C         3.097368         0.244245        -1.373417
 O         3.698279        -0.991458        -1.759508
 C         1.755271         0.421586        -0.797799
 C         2.913528         0.608232         0.110662
 O         3.526840         0.051728         1.281986
 C         2.868864         2.189324        -0.028405
 H         0.302818         3.115975        -0.800135
 H         1.310068         3.862892        -2.014953
 H         0.258389         2.521595        -2.517457
 H         2.730546         1.199762        -3.310332
 H         3.938053         2.075889        -2.649172
 H         4.655408        -0.840512        -1.510742
 H         0.715233        -0.104393        -0.806732
 H         3.565478        -0.904777         1.175230
 H         2.358864         2.419144         0.904105
 H         3.825557         2.711724        -0.131583
