19
Iteration:  3151charge 0 multiplicity 1
 C         0.900277         2.944287        -1.720587
 C         1.914087         1.950743        -1.317674
 C         3.042989         1.333414        -2.358600
 C         3.169066         0.180415        -1.311661
 O         3.925417        -0.898468        -1.700809
 C         1.621821         0.484410        -0.866028
 C         2.912623         0.707759         0.080656
 O         3.510399        -0.106307         1.095448
 C         2.857981         2.186716         0.031034
 H         0.267614         2.922762        -0.824850
 H         1.248035         3.946729        -1.901809
 H         0.155059         2.607630        -2.456742
 H         2.460538         1.004242        -3.232241
 H         4.074880         1.786226        -2.641235
 H         4.443239        -1.207109        -0.964289
 H         0.685058         0.007773        -0.922211
 H         3.042169         0.099111         1.942064
 H         2.175053         2.482888         0.781091
 H         3.694220         2.897797         0.069794
