19
Iteration:  2539charge 0 multiplicity 1
 C         0.863334         2.949770        -1.750422
 C         1.965355         1.906054        -1.263384
 C         3.068367         1.374337        -2.316457
 C         3.139162         0.220523        -1.419058
 O         3.778628        -0.966574        -1.647678
 C         1.793835         0.502529        -0.731858
 C         3.001987         0.737608         0.036553
 O         3.559534        -0.169670         1.034022
 C         2.736972         2.244314        -0.006995
 H         0.259289         3.349262        -0.923255
 H         1.182736         3.836921        -2.344774
 H         0.099056         2.344912        -2.314487
 H         2.561480         1.102723        -3.231606
 H         3.970497         1.959041        -2.467283
 H         4.214028        -1.235495        -0.784755
 H         0.933601        -0.044075        -0.664723
 H         2.991989        -0.130445         1.839797
 H         2.226141         2.685013         0.809569
 H         3.567743         3.010709        -0.071164
