19
Iteration:   145
 C         0.831091         2.916200        -1.684413
 C         1.881966         1.861372        -1.333932
 C         3.108903         1.419289        -2.209381
 C         3.118141         0.238388        -1.321482
 O         3.797353        -0.972564        -1.621898
 C         1.764521         0.359831        -0.853839
 C         2.983720         0.777898         0.068120
 O         3.588839        -0.113493         0.966608
 C         2.738547         2.262207        -0.040417
 H         0.217473         3.153728        -0.798732
 H         1.267316         3.899802        -2.060980
 H         0.107477         2.521068        -2.417195
 H         2.939984         1.190304        -3.312556
 H         4.024790         2.062371        -2.231895
 H         4.398809        -1.094094        -0.905032
 H         0.904168        -0.434661        -1.120964
 H         3.490994         0.209711         1.907291
 H         2.096452         2.753748         0.665865
 H         3.490257         3.010951        -0.126529
