19
Iteration:  4663
 C         0.920983         2.903542        -1.782148
 C         1.927407         1.936620        -1.300042
 C         3.056668         1.474599        -2.268818
 C         3.221558         0.248479        -1.328626
 O         3.790923        -1.001596        -1.615853
 C         1.797241         0.377629        -0.885848
 C         2.894990         0.700478         0.115820
 O         3.545035        -0.002633         1.033057
 C         2.657573         2.199626         0.085126
 H        -0.078231         2.844373        -1.316566
 H         1.485750         3.811901        -1.954257
 H         0.734047         2.476251        -2.823893
 H         2.494521         1.143043        -3.192375
 H         4.097156         1.945913        -2.471362
 H         4.778020        -0.952605        -1.653185
 H         0.822965        -0.241974        -1.023352
 H         3.091714        -0.402154         1.811342
 H         2.062989         2.606388         0.880764
 H         3.655952         2.673923         0.062647
