19
Iteration:  1046
 C         0.858137         2.868505        -1.671565
 C         1.933890         1.875837        -1.376548
 C         3.032935         1.399874        -2.355207
 C         3.184829         0.186364        -1.417390
 O         3.960149        -0.908615        -1.677076
 C         1.742762         0.442161        -0.755718
 C         2.949025         0.699812         0.011542
 O         3.461272        -0.023674         1.169421
 C         2.778785         2.195067        -0.024979
 H         0.249835         3.160996        -0.810288
 H         1.171970         3.800389        -2.118003
 H         0.103212         2.454642        -2.417340
 H         2.580519         1.359805        -3.322496
 H         3.863153         2.085744        -2.508785
 H         3.985925        -1.659884        -0.984582
 H         0.851428        -0.040240        -0.611859
 H         3.144544         0.362277         2.038235
 H         2.057538         2.513571         0.796258
 H         3.733184         2.791531        -0.249077
