19
Iteration:   896charge 0 multiplicity 1
 C         0.873718         2.876776        -1.759431
 C         1.956314         1.905178        -1.245610
 C         3.013371         1.391585        -2.268864
 C         3.147973         0.155262        -1.430853
 O         3.955478        -0.912103        -1.724067
 C         1.693015         0.417929        -0.811767
 C         2.943307         0.711253         0.093620
 O         3.492980        -0.028592         1.144568
 C         2.800033         2.218759        -0.022633
 H         0.100229         3.076653        -1.020101
 H         1.413913         3.740406        -2.212293
 H         0.412380         2.440642        -2.617222
 H         2.464515         1.244337        -3.286803
 H         3.808308         2.176832        -2.547640
 H         3.821220        -1.586442        -1.011667
 H         0.800422        -0.178270        -0.655365
 H         3.148305         0.247434         2.034065
 H         2.319056         2.744054         0.850379
 H         3.650965         2.947928        -0.300723
