19
Iteration:  4889
 C         0.820324         2.766206        -1.741069
 C         2.059215         1.947020        -1.306415
 C         3.012286         1.477499        -2.327702
 C         3.259930         0.252494        -1.370892
 O         3.771450        -1.018876        -1.707516
 C         1.856574         0.434353        -0.894914
 C         2.941801         0.734469         0.135846
 O         3.451129         0.025214         1.117434
 C         2.787212         2.213795         0.070003
 H         0.067376         2.975632        -0.897308
 H         1.133993         3.768470        -2.128819
 H         0.331261         2.253758        -2.600055
 H         2.353177         1.218826        -3.230596
 H         3.905822         2.156860        -2.549370
 H         4.399523        -1.221199        -1.004664
 H         1.210612        -0.384958        -0.787622
 H         2.690450        -0.217458         1.646262
 H         2.069648         2.587538         0.827480
 H         3.673566         2.780238         0.001448
