19
Iteration:   433
 C         0.893027         2.773630        -1.761633
 C         1.935231         1.946299        -1.320057
 C         3.099397         1.463145        -2.232660
 C         3.104421         0.280142        -1.313235
 O         3.709929        -0.925098        -1.729994
 C         1.711887         0.432205        -0.878052
 C         3.030996         0.704220         0.123147
 O         3.610381        -0.100318         1.119415
 C         2.781612         2.233558         0.023241
 H        -0.009642         2.761780        -1.033883
 H         1.208525         3.793636        -2.101499
 H         0.412653         2.406935        -2.770629
 H         2.557007         1.032904        -3.102212
 H         3.921268         2.081206        -2.490938
 H         4.478332        -1.057268        -1.200047
 H         0.849980        -0.310474        -1.410825
 H         3.262387         0.270809         1.919480
 H         2.102052         2.496934         0.780948
 H         3.655623         2.857578         0.107364
