19
Iteration:   276
 C         0.858296         2.840317        -1.728923
 C         1.975184         1.943825        -1.343483
 C         3.097326         1.430384        -2.292185
 C         3.112343         0.237360        -1.406731
 O         3.759325        -0.950022        -1.575558
 C         1.715756         0.518875        -0.925201
 C         2.941386         0.682081         0.096413
 O         3.681106        -0.110596         1.035422
 C         2.715127         2.176217         0.074696
 H         0.251567         2.991631        -0.805133
 H         1.238372         3.840383        -2.112897
 H         0.210423         2.370968        -2.497728
 H         2.564158         1.164575        -3.243829
 H         3.909071         2.145384        -2.426767
 H         4.466759        -0.973951        -0.849183
 H         0.837524        -0.238787        -1.071653
 H         3.321536         0.258906         1.850813
 H         1.904286         2.548258         0.757601
 H         3.509764         2.834769        -0.041614
