19
Iteration:  2863
 C         0.875499         2.889685        -1.730642
 C         1.995730         1.952235        -1.351420
 C         3.084450         1.418310        -2.328996
 C         3.085946         0.250330        -1.372304
 O         3.697613        -0.994401        -1.759194
 C         1.751200         0.418271        -0.797835
 C         2.921117         0.613600         0.096171
 O         3.523078         0.068460         1.275282
 C         2.860500         2.173498        -0.015738
 H         0.267026         3.123499        -0.847229
 H         1.366861         3.903248        -2.042062
 H         0.240052         2.476207        -2.516977
 H         2.691842         1.283186        -3.327629
 H         3.892116         2.080980        -2.587257
 H         4.616092        -0.822738        -1.495094
 H         0.779574        -0.142648        -0.841248
 H         3.600655        -0.920675         1.141010
 H         2.442524         2.430273         0.951268
 H         3.909770         2.741089        -0.061327
