19
Iteration:   937charge 0 multiplicity 1
 C         0.899276         2.920397        -1.746333
 C         1.910688         1.908419        -1.334066
 C         3.121867         1.445277        -2.341593
 C         3.146571         0.225996        -1.394469
 O         3.741947        -0.988656        -1.550013
 C         1.795951         0.391095        -0.848611
 C         2.985391         0.734678         0.080792
 O         3.673352        -0.075531         1.059061
 C         2.599079         2.240012         0.016836
 H         0.323241         3.173538        -0.839189
 H         1.389832         3.812862        -2.048951
 H         0.229625         2.490445        -2.557863
 H         2.600170         1.012131        -3.184962
 H         4.022652         1.936521        -2.563727
 H         4.601780        -0.809161        -1.081266
 H         0.790075        -0.241839        -0.840113
 H         2.980566        -0.259914         1.680291
 H         1.801186         2.503661         0.721756
 H         3.356035         2.941858        -0.006217
