19
Iteration:  4814
 C         0.936391         2.873141        -1.838388
 C         1.928305         1.930998        -1.274189
 C         3.033935         1.451375        -2.295997
 C         3.167902         0.289116        -1.400897
 O         3.841226        -0.970442        -1.580132
 C         1.743905         0.407084        -0.848756
 C         2.963937         0.686059         0.095131
 O         3.577639        -0.047739         1.158024
 C         2.703201         2.155717         0.014142
 H         0.095912         3.020504        -1.143769
 H         1.306626         3.847414        -1.953379
 H         0.662022         2.509787        -2.820137
 H         2.527004         1.132141        -3.170031
 H         3.846638         2.084595        -2.578871
 H         3.988861        -1.066210        -2.561027
 H         0.871418        -0.265143        -0.779568
 H         2.983453         0.314779         1.886041
 H         1.962430         2.264175         0.835769
 H         3.570729         2.850312         0.251585
