19
Iteration:   136charge 0 multiplicity 1
 C         0.850854         2.868996        -1.674525
 C         1.910337         1.915762        -1.292659
 C         3.085919         1.455876        -2.261789
 C         3.236054         0.228943        -1.313635
 O         3.778935        -1.007677        -1.617968
 C         1.754817         0.423498        -0.838226
 C         2.904103         0.776640         0.137806
 O         3.636838        -0.143928         0.949516
 C         2.635799         2.307235        -0.086771
 H         0.244538         3.264596        -0.870802
 H         1.389213         3.762241        -2.034374
 H         0.262827         2.536545        -2.511496
 H         2.781681         1.147903        -3.294281
 H         3.974213         2.085989        -2.159781
 H         4.522378        -1.215940        -1.085376
 H         0.974556        -0.373354        -0.906737
 H         3.334910         0.029111         1.890021
 H         1.920157         2.590564         0.672412
 H         3.647649         2.796486        -0.434139
