19
Iteration:  4701
 C         0.830096         2.752552        -1.757825
 C         2.015492         1.947314        -1.284373
 C         3.181861         1.482160        -2.302244
 C         3.177538         0.225255        -1.367209
 O         3.767625        -0.940797        -1.780706
 C         1.796793         0.398883        -0.803023
 C         3.039351         0.777716         0.100512
 O         3.359469        -0.087938         1.175245
 C         2.753295         2.191799        -0.021719
 H         0.024295         2.855312        -1.021622
 H         1.028025         3.873109        -1.823106
 H         0.445325         2.404273        -2.702433
 H         2.884555         1.252283        -3.356727
 H         4.145701         1.992604        -2.230705
 H         4.600406        -1.042493        -1.205138
 H         0.923681        -0.081466        -0.569375
 H         3.105747         0.594503         1.871689
 H         1.901230         2.374583         0.704841
 H         3.611900         2.849404        -0.137765
