19
Iteration:  2570charge 0 multiplicity 1
 C         0.945179         2.945343        -1.838416
 C         1.937822         1.919311        -1.260314
 C         3.047193         1.383304        -2.268525
 C         3.049469         0.175774        -1.421338
 O         3.794794        -0.914542        -1.712017
 C         1.748165         0.418442        -0.767340
 C         2.896280         0.712728         0.151202
 O         3.683162        -0.075882         1.018490
 C         2.759476         2.238521         0.097119
 H         0.348095         3.304946        -1.061680
 H         1.471232         3.677926        -2.469848
 H         0.260532         2.442500        -2.473630
 H         2.460951         1.160900        -3.199123
 H         3.915689         1.994813        -2.258742
 H         3.572174        -1.575265        -1.053027
 H         0.887179        -0.160614        -0.726624
 H         3.295032         0.033543         1.897761
 H         2.047392         2.685490         0.839874
 H         3.738888         2.688321        -0.095842
