19
Iteration:  4671charge 0 multiplicity 1
 C         0.858040         2.867503        -1.851330
 C         1.913865         1.931403        -1.225316
 C         3.063879         1.522162        -2.281544
 C         3.196055         0.210080        -1.321985
 O         3.824745        -1.057543        -1.638533
 C         1.763953         0.366152        -0.901666
 C         2.919311         0.751390         0.077227
 O         3.531552        -0.034194         1.092942
 C         2.755754         2.180480         0.100446
 H        -0.074035         3.036738        -1.255079
 H         1.278260         3.861248        -1.853300
 H         0.628026         2.686958        -2.887561
 H         2.736820         1.294043        -3.259831
 H         3.962496         2.161378        -2.527290
 H         4.781358        -0.972709        -1.737009
 H         0.857461        -0.138861        -1.120803
 H         2.907607        -0.021351         1.843192
 H         2.116837         2.666575         0.897110
 H         3.693495         2.860736         0.101996
