19
Iteration:  3718
 C         0.938291         2.907672        -1.807577
 C         1.923477         1.904343        -1.357721
 C         3.036770         1.400636        -2.286567
 C         3.254467         0.294407        -1.324410
 O         3.771329        -0.978887        -1.664137
 C         1.730045         0.404789        -0.746245
 C         2.984093         0.759359         0.058001
 O         3.489922        -0.087971         1.066525
 C         2.670829         2.156881         0.047518
 H         0.181299         2.935062        -0.964666
 H         1.379398         3.959463        -1.805043
 H         0.708072         2.725321        -2.874906
 H         2.714091         1.076029        -3.320529
 H         3.910462         2.097425        -2.460033
 H         3.985842        -1.539175        -0.870142
 H         0.928707        -0.249123        -0.414712
 H         4.348460         0.341361         1.337609
 H         1.945587         2.695385         0.686997
 H         3.495361         3.011009        -0.134498
