19
Iteration:   520
 C         0.832988         2.891961        -1.703072
 C         1.918915         1.961986        -1.304290
 C         2.973615         1.409607        -2.303370
 C         3.164361         0.226043        -1.414269
 O         3.921748        -0.953329        -1.578350
 C         1.749632         0.403160        -0.851574
 C         2.932591         0.777208         0.044713
 O         3.522782        -0.126369         1.066999
 C         2.853544         2.226680        -0.043580
 H         0.272268         3.075700        -0.736968
 H         1.204670         3.874730        -1.996672
 H         0.140301         2.455544        -2.473207
 H         2.434550         1.355806        -3.281423
 H         3.823769         2.037865        -2.464493
 H         4.371503        -0.891337        -0.701797
 H         0.788729        -0.395578        -0.895132
 H         2.841473        -0.440383         1.676306
 H         2.340825         2.693825         0.829812
 H         3.808417         2.673449        -0.257576
