19
Iteration:  1418
 C         0.913207         2.876046        -1.861235
 C         1.963642         1.950013        -1.288245
 C         3.056653         1.444509        -2.240806
 C         3.063693         0.189442        -1.414323
 O         3.763382        -1.047496        -1.570166
 C         1.652173         0.397996        -0.749446
 C         2.970023         0.717267        -0.017670
 O         3.682214         0.071992         1.062553
 C         2.712839         2.191495         0.134821
 H         0.123408         3.049024        -1.065982
 H         1.268675         3.909947        -2.018442
 H         0.480155         2.486132        -2.765845
 H         2.731547         1.500933        -3.215539
 H         3.989609         1.938143        -2.200904
 H         4.652421        -0.895645        -1.856343
 H         0.782834        -0.157809        -0.578870
 H         3.794780        -0.826021         0.742555
 H         1.917340         2.241184         0.894107
 H         3.381960         3.087462         0.053915
