19
Iteration:  2640charge 0 multiplicity 1
 C         0.857528         2.837630        -1.655062
 C         2.061469         1.961409        -1.343870
 C         3.018732         1.418955        -2.394152
 C         3.172443         0.220996        -1.407671
 O         3.678023        -1.011710        -1.593617
 C         1.837520         0.484318        -0.821143
 C         2.979360         0.752634         0.111504
 O         3.483545        -0.099293         1.088012
 C         2.837277         2.253334        -0.017378
 H         0.156708         2.563226        -0.795969
 H         1.126709         3.889105        -1.647668
 H         0.237526         2.711495        -2.618307
 H         2.559091         1.054717        -3.270762
 H         3.871239         2.033422        -2.388343
 H         4.648709        -0.879399        -1.645990
 H         0.924331        -0.230557        -0.788600
 H         2.967813        -0.205779         1.876550
 H         2.181282         2.801466         0.703444
 H         3.808895         2.810019        -0.384766
