19
Iteration:  4778
 C         0.940754         2.960798        -1.766427
 C         1.914533         1.898357        -1.250146
 C         3.044528         1.438200        -2.239607
 C         3.181774         0.181829        -1.396513
 O         3.979652        -0.930721        -1.576589
 C         1.758570         0.362895        -0.779622
 C         2.845981         0.740135         0.027270
 O         3.553550        -0.060537         1.029572
 C         2.682190         2.305794        -0.010091
 H         0.065816         3.216884        -1.124240
 H         1.617746         3.736053        -2.262772
 H         0.373130         2.426108        -2.532607
 H         2.549928         0.968600        -3.147505
 H         3.997533         2.034601        -2.339848
 H         3.527621        -1.802594        -1.723480
 H         0.847514        -0.275864        -0.622158
 H         2.870458        -0.714091         1.354989
 H         1.958439         2.542477         0.828755
 H         3.493798         3.006535        -0.076365
