19
Iteration:  2236charge 0 multiplicity 1
 C         0.850674         2.854175        -1.775195
 C         1.945976         1.958799        -1.260033
 C         3.213155         1.445225        -2.260338
 C         3.073098         0.168691        -1.468319
 O         3.760832        -1.059322        -1.690043
 C         1.715083         0.497748        -0.749852
 C         3.001739         0.745100         0.029154
 O         3.580917        -0.027475         0.997219
 C         2.768482         2.221939         0.106583
 H         0.028812         3.140932        -1.065292
 H         1.171898         3.834839        -2.098566
 H         0.104155         2.234964        -2.298313
 H         2.871759         1.332372        -3.270757
 H         4.085746         2.063137        -2.127902
 H         4.244199        -1.160596        -0.788069
 H         0.996276        -0.261651        -0.787693
 H         2.911221        -0.197220         1.727711
 H         2.039160         2.543320         0.861957
 H         3.506010         3.081423         0.073637
