19
Iteration:  4714
 C         0.838524         2.727226        -1.708720
 C         2.009897         1.875334        -1.343517
 C         3.185849         1.398603        -2.274537
 C         3.234208         0.237712        -1.367895
 O         3.803139        -0.953006        -1.830162
 C         1.806535         0.480348        -0.821183
 C         2.935347         0.730523         0.066093
 O         3.342907        -0.039608         1.144223
 C         2.769139         2.326550         0.080533
 H         0.129746         2.680068        -0.855117
 H         1.204218         3.710289        -1.961232
 H         0.332437         2.356355        -2.585336
 H         2.832350         1.087639        -3.220960
 H         3.963994         2.138558        -2.489200
 H         4.270746        -1.405817        -1.145955
 H         0.965911        -0.210303        -0.793249
 H         3.199523         0.244476         2.029025
 H         2.070518         2.752785         0.873582
 H         3.578479         3.137362         0.161292
