19
Iteration:  2992
 C         0.875510         2.906119        -1.634489
 C         1.981355         1.874628        -1.363246
 C         3.050351         1.367890        -2.387221
 C         3.267971         0.241905        -1.320350
 O         3.733091        -1.022345        -1.729270
 C         1.761056         0.472583        -0.802898
 C         2.962583         0.775350         0.145258
 O         3.420694        -0.040042         1.194614
 C         2.841742         2.258062        -0.035609
 H         0.300651         2.996871        -0.718812
 H         1.343736         3.860188        -1.879896
 H         0.285306         2.688495        -2.480954
 H         2.396357         1.043857        -3.128918
 H         3.847969         2.015599        -2.664381
 H         4.703744        -1.137470        -1.552860
 H         0.895415        -0.072440        -0.860987
 H         3.496700        -0.918341         0.718302
 H         2.030944         2.668539         0.652918
 H         3.588142         3.020836        -0.123448
