19
Iteration:  4079charge 0 multiplicity 1
 C         0.835504         2.869481        -1.842176
 C         1.922880         1.935085        -1.269965
 C         3.070762         1.409681        -2.255287
 C         3.181068         0.230772        -1.414183
 O         3.859836        -1.012994        -1.506325
 C         1.779596         0.484334        -0.842996
 C         3.018552         0.695087         0.062285
 O         3.459509        -0.031828         1.176288
 C         2.774643         2.223517        -0.028909
 H         0.240140         2.862177        -0.893476
 H         1.252429         3.877918        -1.894222
 H         0.107080         2.755304        -2.638157
 H         2.652912         1.211699        -3.345207
 H         3.828904         2.240250        -2.409803
 H         4.187132        -0.801785        -2.443929
 H         1.009549        -0.225866        -0.825897
 H         3.247360        -1.006213         0.921607
 H         1.976409         2.502124         0.672062
 H         3.636608         3.050602        -0.134045
