19
Iteration:  2147charge 0 multiplicity 1
 C         0.912892         2.940297        -1.646339
 C         1.992812         1.884819        -1.251993
 C         3.021262         1.434413        -2.372976
 C         3.135751         0.193933        -1.546868
 O         3.876611        -0.984098        -1.607998
 C         1.665123         0.432921        -0.802277
 C         2.998815         0.644772         0.019583
 O         3.512080         0.015065         1.065656
 C         2.782090         2.170734         0.038460
 H         0.063792         2.932163        -0.951937
 H         1.388639         3.898588        -1.686178
 H         0.407836         2.597409        -2.563888
 H         2.483919         1.344358        -3.269652
 H         3.819482         2.136284        -2.513272
 H         4.313461        -1.178275        -0.718509
 H         0.766830        -0.218883        -0.699981
 H         2.872193         0.224086         1.794502
 H         2.104191         2.516704         0.762467
 H         3.702300         2.751301        -0.118067
