19
Iteration:  1917
 C         0.885315         2.753362        -1.765612
 C         2.032545         2.004862        -1.244983
 C         3.051958         1.547863        -2.301015
 C         3.109762         0.206233        -1.432677
 O         3.666817        -0.980412        -1.649344
 C         1.788104         0.460338        -0.884391
 C         2.999970         0.690973         0.046594
 O         3.650741        -0.035142         1.062186
 C         2.739829         2.192656         0.131495
 H        -0.084308         2.859555        -1.256492
 H         1.200440         3.706868        -2.165071
 H         0.584123         2.401870        -2.776374
 H         2.699373         1.099565        -3.216427
 H         4.027336         2.154569        -2.366351
 H         4.032117        -1.257491        -0.814095
 H         0.861008        -0.013253        -0.866108
 H         2.922801        -0.119074         1.733421
 H         2.064058         2.224415         0.951941
 H         3.568245         2.845344         0.189974
