19
Iteration:  1439charge 0 multiplicity 1
 C         0.869050         2.861320        -1.855864
 C         1.811316         1.882756        -1.245111
 C         3.143890         1.484864        -2.196658
 C         3.077549         0.240037        -1.352539
 O         3.700321        -1.019934        -1.592545
 C         1.757119         0.375111        -0.807518
 C         2.959481         0.736215         0.061824
 O         3.657267         0.031214         1.113503
 C         2.759451         2.178160         0.012028
 H         0.078231         3.095779        -1.084800
 H         1.412728         3.828108        -1.860350
 H         0.597697         2.496312        -2.847641
 H         2.881116         1.377657        -3.255226
 H         3.937579         2.185684        -2.007573
 H         4.269719        -0.985203        -2.411600
 H         0.932620        -0.214388        -0.779875
 H         4.092355        -0.814470         0.770204
 H         2.176853         2.774912         0.755760
 H         3.597138         2.897701        -0.376084
