19
Iteration:  2035charge 0 multiplicity 1
 C         0.862304         2.871812        -1.653356
 C         1.943951         1.967351        -1.398089
 C         3.073593         1.356724        -2.339690
 C         3.144150         0.216836        -1.294527
 O         3.840407        -0.845199        -1.698516
 C         1.768434         0.401104        -0.775173
 C         2.954363         0.744500         0.087052
 O         3.499279        -0.153101         1.070171
 C         2.800401         2.260881        -0.036349
 H         0.476004         3.356387        -0.749547
 H         1.330031         3.646984        -2.287644
 H        -0.058499         2.598938        -2.263100
 H         2.854262         1.098623        -3.353068
 H         3.907152         2.028531        -2.313772
 H         4.071948        -1.372994        -0.933145
 H         0.948490        -0.292763        -0.699374
 H         2.889748        -0.389264         1.819866
 H         2.078095         2.603125         0.740096
 H         3.745111         2.792735        -0.374247
