19
Iteration:  2514
 C         0.857539         2.872471        -1.666096
 C         2.068125         1.950318        -1.269151
 C         2.973398         1.494263        -2.361997
 C         3.142505         0.164300        -1.424469
 O         3.795162        -1.029864        -1.584276
 C         1.761666         0.418882        -0.835612
 C         2.950491         0.697912        -0.051001
 O         3.465813        -0.006111         1.066291
 C         2.916178         2.213016         0.027144
 H         0.151669         3.013533        -0.881040
 H         1.041335         3.922176        -2.010846
 H         0.329612         2.331481        -2.376884
 H         2.520973         1.227779        -3.377966
 H         3.727973         2.276351        -2.490877
 H         4.547861        -1.125619        -0.932760
 H         0.828690        -0.157155        -0.522094
 H         2.713122        -0.347707         1.544400
 H         2.481662         2.682383         0.924135
 H         3.686664         2.941000        -0.003507
