19
Iteration:  1453charge 0 multiplicity 1
 C         0.849114         2.852976        -1.827388
 C         1.981009         1.897086        -1.340905
 C         3.048236         1.464291        -2.265464
 C         3.216787         0.249343        -1.337667
 O         3.697875        -1.009886        -1.618432
 C         1.733228         0.397783        -0.797506
 C         2.938983         0.698565         0.153070
 O         3.583478         0.020757         1.119650
 C         2.770255         2.263348         0.058197
 H         0.000321         2.827764        -1.139208
 H         1.263789         3.868345        -2.023687
 H         0.326143         2.634538        -2.761805
 H         2.646966         1.120988        -3.149412
 H         3.902792         2.069999        -2.369928
 H         4.015739        -0.990318        -2.500259
 H         0.947880        -0.487133        -0.794255
 H         4.190757        -0.528367         0.634569
 H         2.242753         2.562261         0.964915
 H         3.745328         2.796825         0.043316
