19
Iteration:  1611charge 0 multiplicity 1
 C         0.885497         2.820848        -1.827383
 C         2.005697         1.949205        -1.264950
 C         3.038163         1.400893        -2.269971
 C         3.155990         0.300656        -1.335460
 O         3.683569        -0.944219        -1.650571
 C         1.722995         0.469893        -0.868075
 C         2.895564         0.702420         0.050669
 O         3.660834        -0.108242         1.031358
 C         2.766522         2.216164         0.123888
 H         0.050004         2.679625        -1.111756
 H         1.259904         3.832643        -1.925118
 H         0.433904         2.435595        -2.786191
 H         2.743655         0.920538        -3.205227
 H         3.785381         2.179976        -2.314412
 H         4.474713        -1.051307        -1.070941
 H         0.796842        -0.135752        -1.099392
 H         3.681045         0.371039         1.888340
 H         2.107173         2.602211         0.913083
 H         3.749601         2.608451        -0.071864
