19
Iteration:  3750
 C         0.892436         2.981948        -1.764470
 C         1.987366         2.004648        -1.349603
 C         2.928766         1.334722        -2.383881
 C         3.078286         0.222773        -1.453842
 O         3.969183        -0.947330        -1.589668
 C         1.738865         0.349487        -0.844464
 C         2.997527         0.716430         0.063583
 O         3.418371        -0.083872         1.133413
 C         2.773414         2.152146         0.122919
 H        -0.017114         3.138957        -1.092620
 H         1.380969         4.046843        -1.815848
 H         0.337355         2.743081        -2.718107
 H         2.398288         1.106722        -3.367390
 H         3.907573         1.831040        -2.483666
 H         4.218057        -1.079524        -0.665085
 H         0.863887        -0.162198        -0.475669
 H         4.333274         0.114349         1.307473
 H         2.105458         2.725264         0.780857
 H         3.748557         2.807896        -0.236750
