19
Iteration:     8charge 0 multiplicity 1
 C         0.862713         2.858241        -1.717804
 C         2.006164         1.940803        -1.258353
 C         3.052384         1.504907        -2.354014
 C         3.132221         0.181306        -1.416194
 O         3.787862        -1.036140        -1.582430
 C         1.813801         0.385245        -0.825846
 C         2.967563         0.739194         0.064584
 O         3.469105         0.040064         1.105799
 C         2.729267         2.230560         0.056304
 H         0.119505         3.048120        -0.853883
 H         1.332859         3.855142        -1.961291
 H         0.339703         2.329965        -2.580936
 H         2.451088         1.232918        -3.236175
 H         4.047327         2.054551        -2.596802
 H         4.785558        -1.036325        -1.690993
 H         0.938502        -0.181555        -0.834711
 H         3.661011        -0.783277         0.685512
 H         2.065765         2.538211         1.028523
 H         3.612450         2.726455        -0.290547
