19
Iteration:  4933charge 0 multiplicity 1
 C         0.911449         2.966393        -1.816268
 C         1.939551         1.918603        -1.333367
 C         3.034110         1.350120        -2.270552
 C         3.091076         0.162882        -1.361824
 O         3.962874        -0.853293        -1.579091
 C         1.650187         0.382418        -0.726774
 C         2.885203         0.720590         0.091185
 O         3.599795        -0.104289         0.935271
 C         2.705371         2.260268         0.002112
 H         0.303058         3.183114        -0.904282
 H         1.303887         3.936304        -2.145065
 H         0.380734         2.385965        -2.578955
 H         2.805639         0.898251        -3.297544
 H         3.997463         1.974521        -2.375948
 H         4.400728        -0.964897        -0.684474
 H         0.749097        -0.113811        -0.480897
 H         3.018269        -0.564072         1.543281
 H         2.049154         2.628884         0.808841
 H         3.630092         2.750099         0.010595
