19
Iteration:  1025
 C         0.864866         2.818770        -1.709503
 C         1.943762         1.922161        -1.271480
 C         3.079489         1.285989        -2.329409
 C         3.204471         0.253157        -1.339639
 O         3.838326        -0.897310        -1.805193
 C         1.799998         0.424885        -0.850656
 C         2.987613         0.756129         0.069095
 O         3.459531        -0.011837         1.200388
 C         2.793731         2.330746        -0.012381
 H         0.174192         2.917665        -0.845731
 H         0.967826         3.841869        -1.982514
 H         0.212834         2.313305        -2.461100
 H         2.608310         0.670228        -3.116658
 H         3.950505         1.761815        -2.608176
 H         3.998564        -1.587618        -1.197624
 H         1.071502        -0.276427        -0.749703
 H         2.794638        -0.169105         1.855335
 H         1.965284         2.527235         0.708678
 H         3.652483         2.982346         0.013180
