19
Iteration:  3652charge 0 multiplicity 1
 C         0.846059         2.783360        -1.773416
 C         2.022772         1.914973        -1.267378
 C         3.098302         1.397094        -2.382197
 C         3.159232         0.261479        -1.358817
 O         3.790527        -0.931524        -1.740545
 C         1.821091         0.491259        -0.789597
 C         3.051390         0.724888         0.093636
 O         3.320752        -0.090503         1.186685
 C         2.779042         2.326246         0.036615
 H         0.255382         3.079447        -0.884961
 H         0.858618         3.733963        -2.322923
 H         0.263665         2.064755        -2.367967
 H         2.588443         1.342120        -3.383796
 H         4.114702         1.832681        -2.510445
 H         3.826872        -1.632029        -1.105062
 H         1.062343        -0.305770        -0.743760
 H         4.239853        -0.318769         1.272751
 H         2.203616         2.727596         0.860440
 H         3.705493         2.968580        -0.040845
