19
Iteration:  2082
 C         0.909755         2.810833        -1.872089
 C         1.925633         1.927997        -1.214374
 C         3.063512         1.500246        -2.216551
 C         3.082742         0.211967        -1.428055
 O         3.734455        -0.997004        -1.655353
 C         1.764939         0.454768        -0.774591
 C         3.054286         0.756724        -0.021586
 O         3.577106        -0.093918         0.973891
 C         2.795085         2.266960         0.182827
 H         0.083622         2.824240        -1.104043
 H         1.219045         3.821795        -2.267984
 H         0.418487         2.216743        -2.730509
 H         2.619838         1.405582        -3.202713
 H         3.999717         2.101065        -2.321909
 H         4.324045        -1.138253        -0.852583
 H         0.851526        -0.208205        -0.414564
 H         2.919104        -0.124598         1.644253
 H         1.958062         2.445938         0.832732
 H         3.714347         2.882062         0.063508
