19
Iteration:  1815
 C         0.893373         2.898001        -1.778419
 C         1.954289         1.894069        -1.327789
 C         3.005711         1.400837        -2.354242
 C         3.147683         0.238161        -1.294251
 O         3.826814        -0.875545        -1.688977
 C         1.744285         0.470901        -0.744984
 C         2.981963         0.750809         0.150537
 O         3.561754        -0.204308         1.075186
 C         2.790427         2.247155        -0.056479
 H         0.110265         3.154537        -1.068480
 H         1.252374         3.905219        -1.739686
 H         0.246182         2.787454        -2.664833
 H         2.875115         1.097082        -3.384132
 H         3.809489         2.179945        -2.491454
 H         4.026268        -1.414882        -0.863429
 H         0.874955        -0.302187        -0.658040
 H         2.890956        -0.469843         1.724465
 H         2.083433         2.602403         0.629914
 H         3.648482         2.863204        -0.182951
