19
Iteration:   800
 C         0.805994         2.877912        -1.793493
 C         1.993714         1.915002        -1.311186
 C         3.131031         1.384539        -2.299866
 C         3.149653         0.221473        -1.316578
 O         3.772404        -1.010442        -1.597953
 C         1.725821         0.431282        -0.929052
 C         2.873339         0.707692         0.191505
 O         3.697967        -0.026426         1.001276
 C         2.668396         2.269161         0.049516
 H         0.310719         2.940620        -0.762722
 H         1.352767         3.927407        -2.024950
 H         0.098616         2.668064        -2.602304
 H         2.622515         1.034772        -3.167835
 H         4.080256         1.998624        -2.351025
 H         4.652466        -0.972981        -1.305070
 H         0.919532        -0.130176        -1.201146
 H         3.131849        -0.438915         1.727801
 H         1.937971         2.682766         0.744017
 H         3.435489         3.117081         0.014978
