19
Iteration:   566
 C         0.813882         2.802713        -1.696595
 C         1.997180         1.979219        -1.328564
 C         3.049984         1.407408        -2.311822
 C         3.159587         0.175807        -1.341188
 O         3.861849        -0.924803        -1.709663
 C         1.810552         0.447090        -0.827914
 C         2.998111         0.723324         0.080033
 O         3.494080        -0.115172         1.087349
 C         2.788803         2.333976         0.031796
 H         0.116301         2.949165        -0.827707
 H         1.040920         3.858189        -2.025663
 H         0.211361         2.300447        -2.522407
 H         2.570919         0.962420        -3.184259
 H         3.853641         1.980959        -2.614774
 H         3.908149        -1.476626        -0.926030
 H         0.873463        -0.226476        -1.006363
 H         2.930279        -0.008392         1.845322
 H         2.021004         2.757833         0.625457
 H         3.613558         3.034608        -0.062427
