19
Iteration:  2994charge 0 multiplicity 1
 C         0.881534         2.900333        -1.632479
 C         1.978035         1.860135        -1.361242
 C         3.046560         1.375630        -2.388698
 C         3.265391         0.263117        -1.331772
 O         3.736252        -1.038981        -1.741856
 C         1.768795         0.479023        -0.802137
 C         2.955290         0.772006         0.160495
 O         3.425228        -0.037283         1.205122
 C         2.831470         2.263976        -0.014166
 H         0.368473         2.999480        -0.727567
 H         1.303032         3.905401        -1.919856
 H         0.317606         2.687567        -2.521064
 H         2.298120         1.097233        -3.115396
 H         3.965723         2.010761        -2.751121
 H         4.713562        -1.176962        -1.564689
 H         0.891044        -0.105595        -0.857941
 H         3.449376        -0.871374         0.730044
 H         2.021117         2.649734         0.571394
 H         3.599587         2.979426        -0.190119
