19
Iteration:   113
 C         0.859571         2.864707        -1.830104
 C         1.964236         1.940335        -1.290529
 C         3.010999         1.460972        -2.336637
 C         3.129535         0.236451        -1.400077
 O         3.737797        -0.966758        -1.605308
 C         1.781443         0.406555        -0.826038
 C         3.041288         0.759140         0.073710
 O         3.631435        -0.054842         1.058388
 C         2.746789         2.191614         0.144440
 H         0.131003         3.013481        -1.041898
 H         1.155229         3.903159        -2.080579
 H         0.326493         2.434271        -2.673735
 H         2.521743         1.063199        -3.272794
 H         3.898208         2.059441        -2.507654
 H         4.616698        -0.938115        -1.119843
 H         0.818376        -0.259939        -0.792756
 H         2.882733        -0.493411         1.504033
 H         1.927414         2.311039         0.814364
 H         3.654346         2.863662         0.121057
