19
Iteration:  1297charge 0 multiplicity 1
 C         0.813626         2.840693        -1.822157
 C         1.914761         1.888574        -1.271166
 C         3.003679         1.510127        -2.259309
 C         3.239478         0.262235        -1.342153
 O         3.635855        -1.081044        -1.676493
 C         1.897424         0.364527        -0.860910
 C         3.047595         0.776804         0.138553
 O         3.516054         0.044754         1.213969
 C         2.781772         2.230202        -0.010755
 H        -0.074599         3.047087        -1.147405
 H         1.247841         3.841164        -1.947637
 H         0.398706         2.576645        -2.825315
 H         2.539072         1.203476        -3.198422
 H         3.860332         2.222465        -2.565764
 H         4.641290        -1.143429        -1.631857
 H         1.257201        -0.514519        -1.071047
 H         3.776145        -0.848519         0.832703
 H         2.187967         2.627909         0.821206
 H         3.588061         3.018146        -0.100833
