19
Iteration:  1106charge 0 multiplicity 1
 C         0.874394         2.870045        -1.814197
 C         1.981203         1.919550        -1.345256
 C         3.031939         1.441305        -2.359031
 C         3.148039         0.163717        -1.369427
 O         3.763496        -0.934837        -1.560720
 C         1.747374         0.444046        -0.827853
 C         2.998140         0.780102         0.148835
 O         3.696233        -0.123155         1.038708
 C         2.625927         2.258365         0.055043
 H         0.050500         2.957486        -1.075922
 H         1.377008         3.842258        -2.108615
 H         0.460334         2.444790        -2.716825
 H         2.456158         1.143760        -3.281577
 H         3.969220         2.005847        -2.596145
 H         4.610764        -0.983441        -1.129052
 H         0.816276        -0.243860        -0.706370
 H         2.994749        -0.412468         1.634845
 H         1.914678         2.542763         0.849531
 H         3.357569         3.030494         0.240869
