19
Iteration:  2815
 C         0.830421         2.892876        -1.652040
 C         2.025041         1.924946        -1.259321
 C         3.000895         1.442266        -2.369663
 C         3.159514         0.250301        -1.480969
 O         3.730648        -1.054931        -1.553695
 C         1.828874         0.432186        -0.829381
 C         3.104672         0.714022        -0.041596
 O         3.397267         0.011885         1.104360
 C         2.887492         2.192605         0.021850
 H         0.068819         2.862161        -0.834347
 H         1.097073         3.901364        -1.757591
 H         0.357270         2.484132        -2.556328
 H         2.503186         1.353350        -3.308453
 H         3.846520         2.119215        -2.712391
 H         4.703764        -1.058255        -1.320260
 H         1.062915        -0.128550        -0.349952
 H         2.624692        -0.521733         1.230191
 H         2.137279         2.583846         0.748221
 H         3.750109         2.827636         0.000491
