19
Iteration:   611
 C         0.911039         2.864170        -1.832829
 C         1.916795         1.945760        -1.232104
 C         3.063482         1.473547        -2.224677
 C         3.106341         0.185683        -1.400912
 O         3.774501        -1.010307        -1.760851
 C         1.736977         0.362291        -0.821531
 C         3.040028         0.725973         0.062755
 O         3.630136         0.013464         1.120255
 C         2.685375         2.220253         0.048703
 H        -0.015200         3.084832        -1.251695
 H         1.221654         3.949081        -2.056435
 H         0.510927         2.427930        -2.795623
 H         2.624047         1.452270        -3.194379
 H         4.038416         1.855716        -2.133276
 H         4.343833        -1.201940        -1.009264
 H         0.986359        -0.272421        -0.630778
 H         2.956124        -0.044667         1.793885
 H         2.119675         2.293947         0.911215
 H         3.464094         2.997322         0.033251
