19
Iteration:  1594
 C         0.848857         2.886920        -1.866926
 C         1.898721         1.935294        -1.326991
 C         3.122672         1.574892        -2.268733
 C         3.144812         0.255050        -1.324696
 O         3.650544        -0.915945        -1.666380
 C         1.751427         0.383678        -0.738196
 C         2.954963         0.634011         0.158764
 O         3.657050        -0.152334         1.068122
 C         2.754820         2.175521        -0.007797
 H        -0.109612         2.958102        -1.338028
 H         1.355720         3.870197        -2.108537
 H         0.540102         2.588037        -2.852411
 H         2.594150         1.222054        -3.251199
 H         4.149292         2.041807        -2.415722
 H         4.242060        -1.175172        -0.939358
 H         1.049485        -0.502774        -0.802299
 H         4.110094         0.258975         1.813813
 H         2.069147         2.652210         0.714083
 H         3.596431         2.955988        -0.135548
