19
Iteration:   658
 C         0.858774         2.872546        -1.747803
 C         1.964834         1.966347        -1.267787
 C         3.074621         1.418693        -2.346172
 C         3.164503         0.258282        -1.405217
 O         3.754539        -0.904776        -1.535676
 C         1.773940         0.397195        -0.895978
 C         2.958723         0.667037         0.092774
 O         3.613768        -0.130422         1.057346
 C         2.716025         2.214147        -0.009263
 H         0.039438         3.214996        -1.037854
 H         1.199919         3.992860        -1.999704
 H         0.340958         2.495723        -2.658094
 H         2.437636         0.968883        -3.088758
 H         3.801827         2.255062        -2.465886
 H         4.551271        -0.916524        -0.999909
 H         1.000740        -0.510308        -0.968789
 H         3.039678        -0.015517         1.869517
 H         2.165314         2.708622         0.815079
 H         3.637564         2.759671        -0.243199
