19
Iteration:    63charge 0 multiplicity 1
 C         0.809413         2.839238        -1.681186
 C         1.927435         1.891509        -1.297391
 C         3.138908         1.351245        -2.286154
 C         3.190747         0.224245        -1.337022
 O         3.745930        -0.920805        -1.809584
 C         1.779741         0.410490        -0.780526
 C         2.912473         0.761409         0.114056
 O         3.498948        -0.007674         1.213393
 C         2.816612         2.279792        -0.081305
 H         0.045171         2.939985        -0.835992
 H         1.196099         3.834803        -1.985304
 H         0.230522         2.530211        -2.596118
 H         2.896242         1.026043        -3.294141
 H         4.118961         1.947098        -2.376469
 H         4.500109        -1.186287        -1.260605
 H         1.151094        -0.377164        -0.878365
 H         3.311483        -0.929437         1.139679
 H         2.256966         2.972589         0.673004
 H         3.705381         2.934403        -0.232178
