19
Iteration:  3931charge 0 multiplicity 1
 C         0.814684         2.911386        -1.714395
 C         1.943675         1.994218        -1.269260
 C         3.077529         1.382538        -2.326396
 C         3.237366         0.174661        -1.354586
 O         3.898414        -0.969911        -1.624486
 C         1.702516         0.374410        -0.843415
 C         2.959776         0.710495         0.059883
 O         3.404584        -0.099935         1.086880
 C         2.790412         2.291111        -0.098096
 H         0.319244         3.089748        -0.790871
 H         1.222611         3.880269        -1.848141
 H         0.109962         2.622102        -2.476631
 H         2.620151         1.012105        -3.247690
 H         3.998574         1.969432        -2.576257
 H         3.966029        -1.387591        -0.766548
 H         0.775772        -0.125998        -0.698328
 H         4.142239         0.243054         1.558574
 H         2.251804         2.654048         0.852967
 H         3.671381         3.015159        -0.239133
