19
Iteration:   424
 C         0.823782         2.810587        -1.744851
 C         2.034037         1.942923        -1.278582
 C         3.055236         1.377638        -2.300595
 C         3.181326         0.265082        -1.357681
 O         3.691432        -0.908635        -1.682720
 C         1.749462         0.485775        -0.930064
 C         2.989331         0.700096         0.141280
 O         3.608787        -0.099326         1.130578
 C         2.735720         2.254395         0.033898
 H         0.060005         2.812556        -0.905141
 H         1.091191         3.869758        -1.979534
 H         0.474332         2.144640        -2.606467
 H         2.520649         1.101034        -3.264820
 H         4.068286         1.937446        -2.612643
 H         4.576311        -0.994598        -1.379823
 H         0.912088        -0.257672        -1.460007
 H         3.156167         0.019566         1.959073
 H         2.036996         2.563491         0.785801
 H         3.714225         2.821456         0.155396
