19
Iteration:  2036
 C         0.866242         2.863191        -1.659148
 C         1.944518         1.972450        -1.399909
 C         3.067039         1.355983        -2.335448
 C         3.139924         0.222376        -1.294940
 O         3.837592        -0.842914        -1.702585
 C         1.768577         0.406510        -0.781000
 C         2.957725         0.749437         0.089637
 O         3.505032        -0.160734         1.078241
 C         2.800328         2.254668        -0.035906
 H         0.468652         3.362853        -0.747212
 H         1.301321         3.651819        -2.319817
 H        -0.054936         2.588849        -2.303007
 H         2.843297         1.082296        -3.339997
 H         3.921328         2.045909        -2.317257
 H         4.066013        -1.360551        -0.897028
 H         0.893206        -0.328747        -0.719988
 H         2.903979        -0.394871         1.804935
 H         2.111322         2.629994         0.789308
 H         3.775400         2.813216        -0.348935
