19
Iteration:  3288charge 0 multiplicity 1
 C         0.907117         2.976976        -1.696890
 C         1.979851         1.938855        -1.335666
 C         3.016848         1.342482        -2.369657
 C         3.184807         0.204773        -1.414496
 O         3.920485        -0.898767        -1.668622
 C         1.717316         0.411695        -0.790086
 C         2.969044         0.719266         0.064971
 O         3.425152        -0.192946         1.169416
 C         2.710997         2.278668         0.001438
 H         0.103433         3.100506        -0.996534
 H         1.576064         3.844064        -1.846795
 H         0.290708         2.664911        -2.546302
 H         2.426172         0.947021        -3.278534
 H         3.849430         1.927672        -2.806226
 H         4.080483        -1.379353        -0.825100
 H         0.806661        -0.070017        -0.777277
 H         4.212575         0.272655         1.549612
 H         2.035009         2.652975         0.798324
 H         3.496791         2.955058        -0.182842
