19
Iteration:  2128
 C         0.827244         2.927617        -1.684400
 C         1.999233         1.969843        -1.300129
 C         3.054099         1.404772        -2.309529
 C         3.150561         0.238803        -1.338600
 O         3.761659        -0.971580        -1.647993
 C         1.722587         0.389581        -0.962487
 C         2.925329         0.672656         0.077997
 O         3.645775         0.009739         1.070777
 C         2.761502         2.173152         0.031429
 H         0.049483         2.863748        -0.869562
 H         1.399663         3.952269        -1.779212
 H         0.441440         2.776010        -2.715451
 H         2.587778         1.122459        -3.320771
 H         4.014886         1.991263        -2.504764
 H         4.072525        -1.370698        -0.762867
 H         0.959556        -0.282714        -1.009362
 H         3.111254        -0.039443         1.866662
 H         2.086611         2.316216         0.885337
 H         3.714497         2.672281        -0.114810
