19
Iteration:  1303
 C         0.823856         2.818831        -1.776066
 C         1.937818         1.915604        -1.368533
 C         3.044650         1.475252        -2.300795
 C         3.220392         0.288037        -1.413832
 O         3.651821        -1.039455        -1.691770
 C         1.840328         0.381340        -0.845581
 C         3.048763         0.732943         0.167888
 O         3.502339         0.050382         1.252203
 C         2.769948         2.253305         0.062859
 H         0.074632         2.900836        -1.020650
 H         1.178080         3.859622        -1.927606
 H         0.413643         2.461868        -2.738642
 H         2.633750         1.048080        -3.257777
 H         3.766831         2.139899        -2.710404
 H         4.590342        -1.195586        -1.651372
 H         1.232071        -0.572672        -0.938539
 H         3.814931        -0.833705         0.986680
 H         2.221167         2.703382         0.918273
 H         3.610737         2.862742        -0.308644
