19
Iteration:  4342charge 0 multiplicity 1
 C         0.913059         2.780690        -1.833884
 C         2.004262         1.886956        -1.274055
 C         3.138905         1.472695        -2.289934
 C         3.186407         0.228568        -1.344786
 O         3.877817        -0.925914        -1.669534
 C         1.688856         0.467978        -0.776909
 C         2.933871         0.699720         0.124443
 O         3.461075        -0.051190         1.092225
 C         2.672793         2.198886         0.088073
 H        -0.021151         2.846696        -1.176882
 H         1.355652         3.807289        -1.982215
 H         0.672197         2.482709        -2.849400
 H         2.803122         0.971262        -3.267711
 H         4.074466         2.019567        -2.576551
 H         3.844412        -1.263804        -2.601102
 H         0.798349        -0.063971        -0.735572
 H         3.529948         0.403363         1.949094
 H         1.912365         2.520244         0.747504
 H         3.393335         3.008077         0.040498
