19
Iteration:   565charge 0 multiplicity 1
 C         0.813777         2.806510        -1.694970
 C         1.999881         1.973021        -1.335279
 C         3.044520         1.408849        -2.304451
 C         3.145427         0.181247        -1.351157
 O         3.870312        -0.928353        -1.707922
 C         1.817932         0.449030        -0.823298
 C         3.003745         0.719463         0.077248
 O         3.488179        -0.113791         1.082194
 C         2.793266         2.337138         0.037236
 H         0.116212         2.958843        -0.834231
 H         1.008264         3.840130        -2.007767
 H         0.201259         2.302941        -2.500335
 H         2.586159         0.948998        -3.212106
 H         3.902437         1.954714        -2.625155
 H         3.922274        -1.481445        -0.894229
 H         0.833272        -0.246202        -0.983044
 H         2.916378         0.007553         1.834576
 H         1.989755         2.778190         0.630823
 H         3.617609         3.034665        -0.048220
