19
Iteration:    44charge 0 multiplicity 1
 C         0.799450         2.860867        -1.609404
 C         1.970688         1.940427        -1.390462
 C         3.127278         1.431876        -2.379032
 C         3.234387         0.249555        -1.355026
 O         3.733634        -0.989377        -1.662716
 C         1.783089         0.434021        -0.860505
 C         3.053522         0.687589         0.039765
 O         3.441506         0.062614         1.243251
 C         2.768019         2.143100        -0.049809
 H         0.247042         2.967377        -0.647507
 H         1.092727         3.890059        -1.940738
 H         0.059812         2.519827        -2.370762
 H         2.645852         1.048722        -3.293946
 H         3.991753         2.069702        -2.687265
 H         4.707376        -0.906535        -1.434719
 H         0.881355        -0.198724        -0.877951
 H         3.235881        -0.847859         1.151967
 H         2.157826         2.465539         0.806323
 H         3.579630         2.781928        -0.119184
