19
Iteration:   165charge 0 multiplicity 1
 C         0.814727         2.854992        -1.697851
 C         1.968438         1.968947        -1.298476
 C         3.055967         1.455375        -2.352110
 C         3.134678         0.220995        -1.428052
 O         3.891871        -0.951580        -1.607663
 C         1.706327         0.456122        -0.837568
 C         2.914268         0.670752        -0.027601
 O         3.571465        -0.037231         1.074577
 C         2.784547         2.104621         0.031307
 H         0.169452         3.131761        -0.833275
 H         1.199320         3.888634        -2.012257
 H         0.156424         2.439534        -2.503112
 H         2.680019         1.310129        -3.407065
 H         4.007244         2.033203        -2.474982
 H         4.174385        -1.244682        -0.733557
 H         0.746738        -0.158181        -0.411722
 H         3.334634         0.558082         1.841523
 H         2.154031         2.358461         0.930708
 H         3.662152         2.644257         0.063542
