19
Iteration:  3757
 C         0.861404         3.014771        -1.752145
 C         1.979979         1.975383        -1.351601
 C         2.977066         1.376410        -2.388804
 C         3.118318         0.176459        -1.420397
 O         3.965368        -0.906682        -1.603195
 C         1.700084         0.360259        -0.793906
 C         2.936123         0.674477         0.044834
 O         3.415499        -0.088514         1.132026
 C         2.807519         2.196935         0.022024
 H         0.132009         3.001757        -0.973996
 H         1.264847         4.009525        -1.993501
 H         0.355444         2.702550        -2.671151
 H         2.609408         0.922775        -3.318296
 H         3.858625         1.990595        -2.576890
 H         4.098223        -1.077225        -0.608046
 H         0.847883        -0.261028        -0.368683
 H         4.341275         0.090423         1.424079
 H         2.285940         2.577898         0.901089
 H         3.781444         2.594212         0.015630
