19
Iteration:   383charge 0 multiplicity 1
 C         0.829485         2.842185        -1.630887
 C         1.905252         1.955517        -1.253357
 C         3.063020         1.454481        -2.280688
 C         3.159002         0.210165        -1.472557
 O         3.786461        -1.034320        -1.602888
 C         1.839763         0.404491        -0.850703
 C         3.112550         0.688189         0.000065
 O         3.440643        -0.001384         1.100626
 C         2.763403         2.253151        -0.042386
 H         0.216887         3.061539        -0.802365
 H         1.335149         3.751126        -1.951564
 H         0.245600         2.482207        -2.468284
 H         2.773858         1.443978        -3.336793
 H         4.039836         2.126128        -2.134851
 H         4.742997        -0.936209        -1.244490
 H         0.989024        -0.329114        -0.598030
 H         2.629327        -0.556625         1.144799
 H         2.168566         2.568984         0.914902
 H         3.395310         3.183456        -0.504141
