19
Iteration:  3746charge 0 multiplicity 1
 C         0.907050         2.967404        -1.765886
 C         1.960930         1.986489        -1.315441
 C         2.926532         1.334322        -2.378921
 C         3.076159         0.204623        -1.454349
 O         3.951392        -0.952853        -1.583602
 C         1.774643         0.376015        -0.849138
 C         2.998103         0.736318         0.059477
 O         3.417831        -0.087391         1.126448
 C         2.772242         2.171703         0.111768
 H         0.103771         3.155020        -1.102915
 H         1.389955         3.963821        -1.763104
 H         0.506048         2.748186        -2.766807
 H         2.322167         1.253791        -3.289131
 H         3.890311         1.796593        -2.592150
 H         4.349129        -1.211664        -0.681166
 H         0.818855        -0.196809        -0.614047
 H         4.397452         0.177585         1.233635
 H         2.045901         2.673131         0.726371
 H         3.517301         2.880924        -0.108981
