19
Iteration:  1048
 C         0.869017         2.872306        -1.682530
 C         1.903163         1.866643        -1.344963
 C         3.040788         1.414657        -2.364875
 C         3.183815         0.190493        -1.444765
 O         3.971078        -0.919377        -1.657089
 C         1.738766         0.439202        -0.757788
 C         2.928946         0.690326        -0.005361
 O         3.464416        -0.024163         1.167868
 C         2.794028         2.208421        -0.030628
 H         0.263968         3.183340        -0.815634
 H         1.131718         3.844892        -2.118879
 H         0.132872         2.467708        -2.380102
 H         2.539979         1.327597        -3.359805
 H         3.852030         2.078704        -2.382387
 H         4.004728        -1.646555        -0.980426
 H         0.865584        -0.047966        -0.577296
 H         3.201352         0.376504         2.043025
 H         2.091781         2.503705         0.784016
 H         3.694156         2.747566        -0.203985
