19
Iteration:    25charge 0 multiplicity 1
 C         0.863800         2.836979        -1.607833
 C         2.008319         1.949502        -1.271074
 C         2.999044         1.504400        -2.402248
 C         3.199904         0.220521        -1.563120
 O         3.813604        -1.164586        -1.556625
 C         1.866803         0.394529        -0.923488
 C         2.922253         0.711795         0.051942
 O         3.417525         0.122131         1.157090
 C         2.776899         2.271738         0.090831
 H         0.274372         3.036235        -0.771083
 H         1.246027         3.795353        -1.924992
 H         0.276451         2.357071        -2.343438
 H         2.425908         1.328439        -3.342465
 H         3.791863         2.186515        -2.520373
 H         4.822251        -1.015992        -1.709525
 H         0.911477        -0.301868        -0.828100
 H         3.350664        -0.839882         1.051457
 H         2.013657         2.502319         0.758860
 H         3.782453         2.885829         0.144028
