19
Iteration:  3287charge 0 multiplicity 1
 C         0.906015         2.982183        -1.703069
 C         1.970179         1.939077        -1.336581
 C         3.021337         1.338355        -2.355265
 C         3.187773         0.206532        -1.426027
 O         3.917772        -0.901667        -1.665257
 C         1.719836         0.411394        -0.792542
 C         2.973162         0.724329         0.070012
 O         3.431793        -0.192834         1.168061
 C         2.707623         2.275838        -0.000263
 H         0.079024         3.098344        -0.980867
 H         1.557373         3.840154        -1.839178
 H         0.282745         2.679064        -2.542723
 H         2.406819         0.958347        -3.289118
 H         3.853595         1.930721        -2.800608
 H         4.064608        -1.374560        -0.842077
 H         0.811646        -0.067977        -0.788598
 H         4.205892         0.204978         1.611714
 H         2.031060         2.682326         0.751404
 H         3.522888         2.948851        -0.183615
