19
Iteration:  3432
 C         0.977967         2.891434        -1.725588
 C         1.954693         1.846460        -1.363856
 C         3.059296         1.386095        -2.326639
 C         3.158187         0.250265        -1.365146
 O         3.888227        -0.880229        -1.684711
 C         1.721103         0.380046        -0.755683
 C         2.875263         0.733894         0.136198
 O         3.451524        -0.102804         1.112212
 C         2.755983         2.260222        -0.018103
 H         0.162916         2.879694        -1.026085
 H         1.409681         3.943690        -1.839505
 H         0.425752         2.717416        -2.706910
 H         2.429343         1.248360        -3.251971
 H         3.996625         2.026817        -2.487563
 H         3.610300        -1.619188        -1.072103
 H         0.799362        -0.336492        -0.602942
 H         4.373165         0.223470         1.193674
 H         1.924215         2.633109         0.689449
 H         3.642657         2.954677        -0.092952
