19
Iteration:  3384charge 0 multiplicity 1
 C         0.850415         2.779046        -1.818850
 C         2.064269         2.030838        -1.327526
 C         3.073463         1.536605        -2.305813
 C         3.136675         0.186201        -1.474192
 O         3.800026        -1.031750        -1.700130
 C         1.817575         0.472488        -0.761790
 C         3.012804         0.669543         0.075514
 O         3.431108        -0.029544         1.142292
 C         2.700150         2.244726         0.148800
 H        -0.089573         2.788214        -1.115505
 H         1.136151         3.760772        -2.170950
 H         0.440309         2.232115        -2.684747
 H         2.653415         1.298654        -3.331652
 H         3.978975         2.124160        -2.402306
 H         3.735599        -1.590714        -0.942704
 H         0.825530         0.159849        -0.628218
 H         4.354537        -0.279080         1.144544
 H         1.962956         2.509484         0.917458
 H         3.678747         2.872310         0.321168
