19
Iteration:  3490
 C         0.858408         2.859866        -1.705911
 C         1.940597         1.851327        -1.323470
 C         3.126750         1.462830        -2.362842
 C         3.161060         0.231905        -1.350722
 O         3.814724        -0.910572        -1.705929
 C         1.809159         0.412658        -0.784353
 C         2.907775         0.744433         0.175458
 O         3.366817        -0.148484         1.130991
 C         2.814684         2.248034        -0.077518
 H         0.290805         3.207359        -0.766577
 H         1.283895         3.719266        -2.261383
 H         0.239596         2.202033        -2.389882
 H         2.735247         1.245056        -3.407797
 H         4.100393         2.083873        -2.533949
 H         4.272510        -1.217166        -0.918377
 H         0.809645         0.099287        -0.766510
 H         4.247145         0.140820         1.452876
 H         2.296194         2.727033         0.891493
 H         3.628337         2.924323        -0.332461
