19
Iteration:  4860
 C         0.750669         2.767465        -1.688286
 C         2.076996         1.915119        -1.369275
 C         3.219761         1.455383        -2.330114
 C         3.163569         0.213756        -1.333374
 O         3.742708        -1.006203        -1.732251
 C         1.767390         0.527451        -0.858742
 C         3.018281         0.699672         0.143493
 O         3.433905        -0.032815         1.198101
 C         2.721156         2.183436        -0.034562
 H         0.100518         2.714782        -0.850566
 H         0.860326         3.793167        -1.920422
 H         0.448814         2.259804        -2.609491
 H         2.970020         1.229912        -3.325508
 H         4.086588         2.051304        -2.333130
 H         4.612270        -0.675581        -2.118316
 H         0.952162        -0.091764        -0.623736
 H         3.168941         0.492837         2.017359
 H         2.060511         2.583939         0.741839
 H         3.537531         3.036572        -0.163486
