19
Iteration:   640charge 0 multiplicity 1
 C         0.915584         2.866876        -1.787586
 C         1.955817         1.910570        -1.356799
 C         3.063196         1.437742        -2.314054
 C         3.177716         0.204243        -1.310054
 O         3.788476        -0.988344        -1.667153
 C         1.723520         0.404845        -0.749894
 C         2.913151         0.768895         0.111770
 O         3.617269        -0.051684         0.971800
 C         2.698712         2.228248         0.071863
 H         0.148833         3.013313        -1.027078
 H         1.282627         3.816904        -1.970660
 H         0.376190         2.649837        -2.708060
 H         2.603779         1.213300        -3.334152
 H         4.081929         1.943787        -2.301366
 H         4.614718        -0.915693        -1.189718
 H         0.774301        -0.234795        -0.705563
 H         3.125743        -0.102970         1.838050
 H         1.864999         2.367172         0.870882
 H         3.506287         2.955485         0.279189
