19
Iteration:  2966
 C         0.851310         2.952839        -1.676643
 C         1.976505         1.964548        -1.279138
 C         3.108330         1.450258        -2.343152
 C         3.073820         0.168982        -1.478802
 O         3.783797        -1.031021        -1.522902
 C         1.709330         0.430254        -0.803992
 C         3.001759         0.729722         0.008104
 O         3.414148        -0.010031         1.108734
 C         2.892039         2.141862        -0.021214
 H         0.056407         2.867064        -0.854509
 H         1.209479         3.979749        -1.865671
 H         0.280706         2.496639        -2.564695
 H         2.442501         1.454324        -3.252475
 H         4.064989         1.905888        -2.340657
 H         4.734010        -0.738093        -1.612628
 H         0.873471        -0.297768        -0.447348
 H         3.933908        -0.764677         0.760641
 H         2.371299         2.698354         0.812356
 H         3.740227         2.918015        -0.247680
