19
Iteration:  1264
 C         0.904961         2.841848        -1.886562
 C         1.973247         1.931196        -1.280325
 C         3.090912         1.457447        -2.300477
 C         2.991207         0.194447        -1.374123
 O         3.767945        -1.027162        -1.551271
 C         1.719114         0.423046        -0.799171
 C         2.994535         0.759050         0.063576
 O         3.661354         0.042937         1.064561
 C         2.683075         2.195461         0.123650
 H         0.134735         2.922987        -1.074113
 H         1.355207         3.822472        -2.037260
 H         0.380346         2.513957        -2.823545
 H         2.570554         1.324542        -3.243083
 H         4.136440         1.962511        -2.275947
 H         4.607824        -0.652480        -1.872999
 H         0.845833        -0.270872        -0.507548
 H         3.667527        -0.840380         0.680874
 H         1.867782         2.317155         0.856633
 H         3.519431         2.946164         0.150810
