19
Iteration:  4070
 C         0.808471         2.954598        -1.807925
 C         1.955660         1.921714        -1.358609
 C         3.114351         1.427632        -2.256537
 C         3.181864         0.204814        -1.385006
 O         3.837686        -0.978532        -1.543147
 C         1.735778         0.404021        -0.824401
 C         2.967702         0.666225         0.079689
 O         3.482100        -0.011615         1.172507
 C         2.781569         2.235804        -0.006293
 H        -0.002130         2.988479        -1.009367
 H         1.076097         4.023218        -1.923963
 H         0.215128         2.594660        -2.725437
 H         2.654118         0.999870        -3.120388
 H         3.992167         2.137173        -2.405103
 H         4.417289        -0.980899        -2.364019
 H         0.899874        -0.319361        -0.878749
 H         3.620360        -1.002649         1.086529
 H         2.120367         2.580624         0.749456
 H         3.586416         2.972200        -0.138621
