19
Iteration:  1638
 C         0.816038         2.901833        -1.657980
 C         2.020496         2.003729        -1.280832
 C         3.088069         1.431174        -2.376266
 C         3.088971         0.187607        -1.461167
 O         3.831077        -1.087264        -1.639601
 C         1.770213         0.422360        -0.768616
 C         3.013784         0.772947        -0.024702
 O         3.520517        -0.028427         1.084460
 C         2.753298         2.221765         0.017569
 H         0.072383         2.851649        -0.871664
 H         1.111672         3.927620        -1.956149
 H         0.306961         2.474423        -2.499394
 H         2.670742         1.339825        -3.455872
 H         3.979418         2.118751        -2.205434
 H         4.484597        -1.002751        -0.910869
 H         0.990564        -0.193602        -0.480595
 H         2.783849        -0.351876         1.645286
 H         1.984156         2.420719         0.767949
 H         3.625191         2.892709         0.081272
