19
Iteration:  3467
 C         0.836578         2.994548        -1.736790
 C         1.972033         1.885148        -1.305233
 C         2.974521         1.401901        -2.276855
 C         3.231124         0.170583        -1.423337
 O         3.924296        -0.953321        -1.645419
 C         1.776050         0.388244        -0.810714
 C         3.001611         0.708905        -0.010119
 O         3.315116        -0.041597         1.126517
 C         2.823908         2.226593        -0.001237
 H         0.284989         3.212956        -0.774870
 H         1.364318         3.940556        -2.057129
 H         0.214829         2.428556        -2.477860
 H         2.361457         1.293689        -3.243418
 H         3.875586         2.008737        -2.743788
 H         4.079201        -1.368676        -0.751269
 H         0.933651        -0.286787        -0.706722
 H         4.248467        -0.157962         1.334194
 H         2.076795         2.457204         0.958063
 H         3.576944         3.004156         0.148559
