19
Iteration:  3129
 C         0.914958         2.890353        -1.645787
 C         1.951094         1.936232        -1.305369
 C         3.102338         1.373806        -2.305513
 C         3.092730         0.220726        -1.368447
 O         3.898365        -0.863951        -1.641357
 C         1.703182         0.414857        -0.756341
 C         2.857702         0.726955         0.051905
 O         3.494706        -0.170152         1.003194
 C         2.797449         2.235545        -0.095990
 H         0.172322         2.972903        -0.853799
 H         1.373023         3.853961        -1.846796
 H         0.350354         2.613633        -2.558254
 H         2.807754         0.933787        -3.265084
 H         4.048460         1.985498        -2.235431
 H         4.093664        -1.227925        -0.726452
 H         0.817323        -0.108772        -0.725168
 H         3.302709         0.341602         1.802667
 H         2.166908         2.836569         0.471364
 H         3.784600         2.684443        -0.137479
