19
Iteration:  3228charge 0 multiplicity 1
 C         0.839604         2.808536        -1.774264
 C         2.088481         2.083739        -1.365545
 C         3.086786         1.445868        -2.269746
 C         3.094925         0.169005        -1.407181
 O         3.759087        -0.974899        -1.656551
 C         1.683128         0.424268        -0.840926
 C         2.894799         0.675379         0.053275
 O         3.616370        -0.071428         1.051446
 C         2.788100         2.221977         0.149307
 H         0.121355         2.939677        -0.930873
 H         1.003872         3.810873        -2.150688
 H         0.543152         2.321556        -2.702912
 H         2.694313         1.189963        -3.280488
 H         3.998768         2.129633        -2.297395
 H         4.506471        -1.066211        -0.984667
 H         0.637289        -0.077549        -0.915271
 H         3.225900         0.000625         1.972767
 H         2.026834         2.642579         0.791423
 H         3.767064         2.827555         0.250878
