19
Iteration:  1520charge 0 multiplicity 1
 C         0.789497         2.881738        -1.647058
 C         1.859190         1.937123        -1.313472
 C         3.054863         1.403191        -2.300121
 C         3.196183         0.199236        -1.335879
 O         3.946293        -0.883974        -1.660749
 C         1.760947         0.400165        -0.882809
 C         2.987885         0.715770         0.089013
 O         3.347080        -0.123133         1.203258
 C         2.902235         2.298669        -0.132279
 H         0.221987         3.150100        -0.773114
 H         1.313366         3.728411        -2.118283
 H        -0.044615         2.636534        -2.329577
 H         2.641265         0.960874        -3.121726
 H         3.764087         2.129042        -2.567909
 H         3.360035        -1.647441        -1.356824
 H         0.850041        -0.249751        -0.903457
 H         4.359983        -0.198828         1.147613
 H         2.573660         2.918924         0.734134
 H         3.894731         2.583451        -0.496572
