19
Iteration:    99
 C         0.837854         2.814042        -1.794423
 C         1.965701         2.035414        -1.199540
 C         3.000590         1.386035        -2.324560
 C         3.108251         0.227400        -1.474653
 O         3.769932        -0.958521        -1.659207
 C         1.776444         0.490071        -0.784798
 C         3.087972         0.637370        -0.025991
 O         3.559946         0.028671         1.140785
 C         2.775370         2.187830         0.113782
 H        -0.147964         3.001871        -1.309556
 H         1.315220         3.801638        -2.135743
 H         0.692214         2.230175        -2.737924
 H         2.440797         1.397367        -3.283369
 H         3.974463         1.914592        -2.501923
 H         4.518639        -0.909327        -1.046636
 H         0.973160        -0.375464        -0.729922
 H         2.919406        -0.648517         1.362199
 H         2.153075         2.212952         1.004993
 H         3.499591         2.847591         0.173018
