19
Iteration:  2042
 C         0.853193         2.857339        -1.729967
 C         1.970729         1.946885        -1.369699
 C         3.038579         1.384081        -2.287007
 C         3.118851         0.273426        -1.339630
 O         3.832286        -0.856572        -1.709433
 C         1.722231         0.430083        -0.816012
 C         2.973643         0.754480         0.120963
 O         3.551092        -0.192386         1.109897
 C         2.812224         2.235049        -0.029079
 H         0.446138         3.321828        -0.849278
 H         1.121819         3.694679        -2.395043
 H         0.140295         2.402371        -2.366997
 H         2.690667         0.946091        -3.283784
 H         3.937757         2.032772        -2.421937
 H         4.022092        -1.236389        -0.856960
 H         0.906335        -0.235596        -0.826892
 H         2.820973        -0.387620         1.784584
 H         2.452428         2.762780         0.858413
 H         3.698388         2.833098        -0.033092
