19
Iteration:  1877charge 0 multiplicity 1
 C         0.813906         2.975107        -1.649039
 C         1.918392         1.937925        -1.325537
 C         3.104201         1.367395        -2.315295
 C         3.164401         0.226166        -1.374700
 O         3.859128        -0.919990        -1.658331
 C         1.751683         0.389068        -0.820708
 C         3.013775         0.688096         0.061714
 O         3.496830        -0.120056         1.060424
 C         2.746239         2.211972        -0.085146
 H         0.588822         3.270919        -0.622072
 H         1.313031         3.798173        -2.208684
 H         0.039017         2.497175        -2.201422
 H         2.809662         1.167560        -3.370580
 H         3.872706         2.074252        -2.139430
 H         4.408742        -1.276377        -0.897083
 H         0.726636        -0.186704        -0.645698
 H         2.946326        -0.119367         1.850702
 H         2.135905         2.740730         0.733557
 H         3.555479         3.046390        -0.221700
