19
Iteration:  4746
 C         0.797024         2.845161        -1.733086
 C         1.925570         1.941338        -1.344222
 C         3.129032         1.488209        -2.350069
 C         3.201897         0.202172        -1.449051
 O         3.896077        -0.875525        -1.618369
 C         1.778631         0.439030        -0.821998
 C         2.963727         0.636386         0.032897
 O         3.463546        -0.041817         1.198103
 C         2.825623         2.199570         0.036089
 H         0.127529         3.235402        -0.950597
 H         1.090707         3.787989        -2.213902
 H         0.284390         2.290245        -2.505752
 H         2.802151         1.097363        -3.329444
 H         3.981689         2.137543        -2.586928
 H         3.451341        -1.664928        -1.208318
 H         0.874125        -0.199694        -0.806737
 H         2.687293        -0.404497         1.698390
 H         2.048342         2.420070         0.829370
 H         3.692847         2.888188        -0.029614
