19
Iteration:  4738charge 0 multiplicity 1
 C         0.757808         2.843458        -1.734577
 C         2.049480         1.990610        -1.292627
 C         3.129062         1.422581        -2.332859
 C         3.197910         0.278731        -1.361221
 O         3.908913        -0.952972        -1.717204
 C         1.808962         0.424776        -0.882082
 C         2.961487         0.659919         0.105890
 O         3.423438        -0.041400         1.169814
 C         2.779862         2.197316         0.012417
 H         0.080764         3.022009        -0.872891
 H         1.005009         3.745781        -2.229110
 H         0.222767         2.263899        -2.509232
 H         2.685436         1.090522        -3.231338
 H         3.831877         2.189919        -2.630855
 H         3.504146        -1.633476        -1.128143
 H         0.807766        -0.157390        -0.925373
 H         2.833676        -0.191753         1.923771
 H         2.129155         2.702157         0.753067
 H         3.621196         2.997955         0.044006
