19
Iteration:  4793
 C         0.911606         2.953005        -1.863470
 C         1.907020         1.958517        -1.329937
 C         3.049959         1.343773        -2.362792
 C         3.139828         0.226160        -1.317874
 O         3.970010        -0.910502        -1.585790
 C         1.714211         0.423298        -0.803517
 C         2.969741         0.709035         0.152292
 O         3.599151        -0.071675         1.074586
 C         2.636728         2.183982         0.105140
 H         0.226224         3.305303        -1.106044
 H         1.393555         3.866890        -2.042063
 H         0.396371         2.688690        -2.790066
 H         2.557774         1.089650        -3.255371
 H         3.923948         1.923070        -2.559048
 H         3.404217        -1.388699        -2.171349
 H         0.877576        -0.298230        -0.745263
 H         2.999316        -0.522919         1.650503
 H         1.850488         2.518482         0.808011
 H         3.569273         2.887618         0.056809
