19
Iteration:  1664charge 0 multiplicity 1
 C         0.823154         2.901513        -1.607909
 C         1.919117         1.871754        -1.291944
 C         3.064578         1.399048        -2.345894
 C         3.256497         0.259149        -1.312334
 O         3.811897        -0.960162        -1.701570
 C         1.790072         0.419937        -0.837957
 C         3.005972         0.770378         0.047236
 O         3.441223        -0.051003         1.157745
 C         2.815320         2.215890        -0.135200
 H         0.308479         3.230322        -0.652972
 H         1.330886         3.825627        -2.028607
 H         0.043364         2.724548        -2.464574
 H         2.511099         1.002736        -3.146007
 H         3.847474         2.159168        -2.517021
 H         4.164694        -1.318123        -0.832657
 H         0.941093        -0.366879        -0.804695
 H         2.943171        -0.902396         1.130840
 H         2.257349         2.784424         0.738129
 H         3.749341         2.915114        -0.297722
