19
Iteration:  4512charge 0 multiplicity 1
 C         0.811763         2.883487        -1.817549
 C         1.949275         1.927240        -1.377093
 C         3.174803         1.476368        -2.260416
 C         3.199797         0.222278        -1.338538
 O         3.891219        -0.934600        -1.680669
 C         1.762947         0.343961        -0.877805
 C         2.941330         0.739583         0.106002
 O         3.444075        -0.015340         1.204209
 C         2.659244         2.174556         0.081502
 H         0.128170         3.078843        -1.065376
 H         1.308711         3.866205        -1.852885
 H         0.531563         2.579696        -2.838031
 H         2.681756         1.313442        -3.268049
 H         4.139390         1.955633        -2.420439
 H         3.417764        -1.808752        -1.485102
 H         0.890055        -0.245420        -0.904155
 H         4.397055        -0.166445         0.971442
 H         1.884713         2.449734         0.850927
 H         3.505307         2.896216         0.065803
