19
Iteration:  3274
 C         0.864481         2.995881        -1.770213
 C         1.893523         1.903292        -1.323788
 C         3.009630         1.418973        -2.301896
 C         3.141406         0.209660        -1.356188
 O         3.886059        -0.970235        -1.652150
 C         1.824510         0.429343        -0.837626
 C         2.992898         0.758352         0.152177
 O         3.470427        -0.175415         1.066100
 C         2.743070         2.228282        -0.058841
 H         0.197554         3.106707        -0.829212
 H         1.173118         4.006749        -1.868218
 H         0.418416         2.839089        -2.741691
 H         2.486108         1.121466        -3.333723
 H         3.947428         2.044274        -2.349822
 H         3.881938        -1.368241        -0.740382
 H         1.059147        -0.356379        -0.676983
 H         3.965754         0.028976         1.917664
 H         2.068927         2.672554         0.640872
 H         3.702889         2.829620        -0.076100
