19
Iteration:  3461charge 0 multiplicity 1
 C         0.857817         3.022650        -1.733127
 C         1.925478         1.903161        -1.308771
 C         2.983838         1.386116        -2.332703
 C         3.203565         0.137699        -1.409962
 O         3.960134        -0.947545        -1.644161
 C         1.793091         0.366563        -0.815487
 C         3.023001         0.694855         0.026526
 O         3.324535        -0.020655         1.110988
 C         2.822007         2.228980         0.047799
 H         0.260243         3.118780        -0.799488
 H         1.193180         3.968342        -2.116703
 H         0.331983         2.600088        -2.598559
 H         2.165912         1.245558        -3.043091
 H         3.840046         1.902083        -2.645320
 H         3.908559        -1.426282        -0.759373
 H         0.727443         0.014368        -0.850288
 H         4.304746        -0.075361         1.334306
 H         2.129241         2.096262         0.799025
 H         3.520253         3.092249         0.132286
