19
Iteration:  3246charge 0 multiplicity 1
 C         0.897428         2.808203        -1.770931
 C         1.974471         1.902608        -1.177279
 C         3.120411         1.477338        -2.295672
 C         3.180072         0.235598        -1.468759
 O         3.773682        -0.986571        -1.614402
 C         1.651766         0.517035        -0.827263
 C         2.960857         0.689216         0.040120
 O         3.524300        -0.073228         0.998059
 C         2.774155         2.182198         0.035011
 H         0.068314         2.837799        -1.089828
 H         1.265465         3.885901        -1.927073
 H         0.417985         2.379019        -2.706788
 H         2.575690         1.340435        -3.189718
 H         4.080045         1.972563        -2.394070
 H         4.282027        -0.940700        -0.748382
 H         0.776881        -0.030372        -0.730795
 H         3.459566         0.447923         1.847920
 H         2.125283         2.478232         0.955947
 H         3.710509         2.759255         0.029456
