19
Iteration:   173
 C         0.861104         2.858096        -1.673452
 C         1.978261         1.986810        -1.231254
 C         2.979831         1.460654        -2.379217
 C         3.127956         0.218933        -1.441007
 O         3.956387        -0.997331        -1.640032
 C         1.706050         0.492269        -0.854280
 C         2.921293         0.654388         0.020746
 O         3.543427        -0.017467         1.077263
 C         2.788807         2.090703         0.026090
 H         0.027421         2.962113        -0.961545
 H         1.166266         3.778507        -2.133511
 H         0.424684         2.234469        -2.483730
 H         2.483276         1.316461        -3.312364
 H         3.905206         1.988698        -2.584973
 H         4.121419        -1.289479        -0.762069
 H         0.720217         0.129348        -0.635206
 H         3.271217         0.483308         1.923636
 H         2.081722         2.582884         0.747227
 H         3.690437         2.829329         0.204358
