19
Iteration:  2458charge 0 multiplicity 1
 C         0.878756         2.878379        -1.697968
 C         1.989846         1.925489        -1.272586
 C         3.043445         1.417372        -2.307192
 C         3.158192         0.150509        -1.388603
 O         3.745228        -1.048983        -1.745808
 C         1.788245         0.469125        -0.756547
 C         3.021856         0.725221         0.029304
 O         3.510417         0.056533         1.135184
 C         2.757356         2.253079         0.009348
 H         0.022344         2.955691        -1.036122
 H         1.418681         3.830043        -1.613528
 H         0.628627         2.934029        -2.696934
 H         2.526432         1.261652        -3.306019
 H         3.901657         2.029031        -2.543989
 H         4.481463        -1.265641        -1.115556
 H         0.947448        -0.243329        -0.572763
 H         2.967038        -0.769469         1.324430
 H         2.001583         2.371560         0.805162
 H         3.602666         2.874310        -0.248379
