19
Iteration:  3310charge 0 multiplicity 1
 C         0.957125         2.900758        -1.716418
 C         2.003411         1.926215        -1.298610
 C         2.960442         1.355900        -2.298701
 C         3.147450         0.195003        -1.445260
 O         3.944240        -0.892046        -1.678589
 C         1.706373         0.425605        -0.806658
 C         2.919313         0.731818         0.036688
 O         3.335685         0.014643         1.089123
 C         2.830127         2.114001         0.060880
 H         0.231335         2.992454        -0.935602
 H         1.471688         3.858394        -1.980662
 H         0.273063         2.440246        -2.434069
 H         2.403160         1.152247        -3.278460
 H         3.816414         2.014875        -2.570772
 H         4.305086        -1.244848        -0.832614
 H         0.871364        -0.180728        -0.549988
 H         4.295497        -0.007987         1.340411
 H         2.052455         2.531448         0.709656
 H         3.744417         2.619812         0.191542
