19
Iteration:  4240
 C         0.868235         2.841549        -1.704276
 C         2.003638         1.951027        -1.378606
 C         3.050272         1.449180        -2.310774
 C         3.180284         0.191235        -1.375106
 O         3.947813        -0.945046        -1.563709
 C         1.723923         0.382705        -0.839473
 C         2.981212         0.704398         0.025491
 O         3.296830        -0.000559         1.222689
 C         2.826070         2.228082        -0.051145
 H         0.135722         2.935875        -0.885406
 H         1.342174         3.870534        -1.982650
 H         0.271019         2.438254        -2.575950
 H         2.642339         1.414787        -3.349261
 H         4.097158         1.978205        -2.268336
 H         3.739004        -1.110736        -2.481148
 H         0.746078        -0.100950        -0.548304
 H         4.043576        -0.626585         1.049121
 H         2.049600         2.381571         0.719510
 H         3.654301         2.899332         0.013996
