19
Iteration:  3460
 C         0.866359         3.019940        -1.732750
 C         1.923627         1.913143        -1.304934
 C         2.982788         1.380439        -2.341837
 C         3.193366         0.142020        -1.409280
 O         3.966581        -0.949869        -1.644681
 C         1.790455         0.365928        -0.817373
 C         3.027272         0.695520         0.029314
 O         3.327146        -0.021075         1.112083
 C         2.817811         2.226535         0.052473
 H         0.220573         3.118975        -0.786492
 H         1.184495         3.968738        -2.115493
 H         0.317878         2.623698        -2.623112
 H         2.173906         1.207134        -3.041936
 H         3.851577         1.914804        -2.635814
 H         3.895542        -1.450959        -0.760357
 H         0.751332         0.055962        -0.850696
 H         4.306903        -0.051258         1.320808
 H         2.114441         2.079291         0.803385
 H         3.506003         3.071540         0.117437
