19
Iteration:   379
 C         0.833341         2.853582        -1.636119
 C         1.878438         1.955101        -1.243277
 C         3.093261         1.454236        -2.267805
 C         3.152733         0.219859        -1.482723
 O         3.799959        -1.008129        -1.620975
 C         1.825265         0.406096        -0.848128
 C         3.101233         0.680279         0.019673
 O         3.444881        -0.012206         1.124941
 C         2.739735         2.253184        -0.083007
 H         0.194424         3.107578        -0.711648
 H         1.415314         3.769477        -1.920309
 H         0.287311         2.375337        -2.520043
 H         2.726743         1.325354        -3.359010
 H         4.123482         2.119535        -2.278337
 H         4.623966        -0.961228        -1.193407
 H         0.946117        -0.366337        -0.539865
 H         2.714551        -0.635000         1.200818
 H         2.383381         2.551854         0.884342
 H         3.417290         3.096238        -0.512654
