19
Iteration:  1219
 C         0.823189         2.913936        -1.736982
 C         1.903307         1.887317        -1.325714
 C         2.981979         1.434897        -2.324610
 C         3.165027         0.229197        -1.400517
 O         3.826985        -0.958199        -1.510807
 C         1.811681         0.378893        -0.801643
 C         2.984815         0.717392         0.010604
 O         3.454380        -0.040507         1.140493
 C         2.828312         2.234726        -0.028784
 H         0.149051         3.267249        -0.953190
 H         1.316059         3.753067        -2.221754
 H         0.128853         2.551188        -2.565914
 H         2.621318         1.084186        -3.270379
 H         3.813703         2.226165        -2.271944
 H         4.771074        -0.918348        -1.714854
 H         0.918399        -0.318688        -0.718776
 H         4.043185        -0.763325         0.916789
 H         2.198549         2.647214         0.785861
 H         3.790403         2.820351        -0.141983
