19
Iteration:   825
 C         0.830885         2.831293        -1.764046
 C         1.961123         1.943507        -1.268066
 C         3.056610         1.553317        -2.354355
 C         3.174025         0.270523        -1.476285
 O         3.733736        -1.003682        -1.509000
 C         1.816275         0.374130        -0.837503
 C         3.000649         0.682972        -0.000586
 O         3.541120         0.006591         1.079885
 C         2.776626         2.160174         0.003766
 H         0.154736         2.877869        -0.886291
 H         1.240346         3.799349        -2.094668
 H         0.266247         2.393042        -2.637460
 H         2.670561         1.459244        -3.353428
 H         4.025266         2.033188        -2.208348
 H         4.497088        -1.060112        -0.913202
 H         1.071990        -0.381788        -0.550275
 H         2.761340        -0.270685         1.616986
 H         2.189402         2.403135         0.854344
 H         3.572261         2.837104         0.015219
