19
Iteration:  1649
 C         0.802677         2.918943        -1.646155
 C         1.916431         1.952525        -1.390664
 C         3.048889         1.434418        -2.316953
 C         3.168048         0.163910        -1.488045
 O         3.800358        -1.005680        -1.634133
 C         1.825959         0.404439        -0.767032
 C         3.072507         0.695649         0.027335
 O         3.476100        -0.028336         1.121261
 C         2.782278         2.265607        -0.003535
 H         0.273947         3.068126        -0.722075
 H         1.169349         3.953912        -1.839175
 H         0.134590         2.617418        -2.427093
 H         2.925636         1.174501        -3.430887
 H         4.042978         2.029525        -2.374224
 H         4.334652        -1.186291        -0.867287
 H         1.057036        -0.214313        -0.481386
 H         2.731780        -0.594577         1.262906
 H         2.158887         2.581364         0.827583
 H         3.587840         3.013566        -0.110910
