19
Iteration:  3588charge 0 multiplicity 1
 C         0.957688         2.958243        -1.745892
 C         1.954597         1.910734        -1.329054
 C         3.013113         1.349364        -2.381451
 C         3.112790         0.165800        -1.386714
 O         3.938219        -0.947009        -1.657661
 C         1.642295         0.400849        -0.827763
 C         2.922852         0.748838         0.083459
 O         3.490420        -0.040493         1.146378
 C         2.758656         2.176669         0.045819
 H         0.150053         2.985186        -0.934146
 H         1.340569         3.969989        -1.761137
 H         0.401535         2.580581        -2.637142
 H         2.596155         1.427513        -3.401265
 H         3.718711         2.239762        -2.482478
 H         4.066074        -1.312601        -0.746329
 H         0.639941        -0.033575        -0.691889
 H         4.451975        -0.117445         1.097774
 H         2.064682         2.641470         0.841652
 H         3.607574         2.813458         0.009405
