19
Iteration:  4116
 C         0.851098         2.793139        -1.793709
 C         2.009751         2.007299        -1.305172
 C         3.073288         1.411167        -2.338259
 C         3.164440         0.227375        -1.364049
 O         3.929695        -0.918928        -1.607636
 C         1.760851         0.439211        -0.875906
 C         2.946482         0.725843         0.083328
 O         3.426124         0.028386         1.169054
 C         2.769001         2.182516         0.057612
 H         0.282508         3.102156        -0.864802
 H         1.235442         3.797890        -2.103995
 H         0.198511         2.278008        -2.578030
 H         2.504406         1.269011        -3.236587
 H         4.090935         1.918119        -2.377911
 H         3.345667        -1.611572        -1.956932
 H         0.880897        -0.267545        -0.861685
 H         3.245616        -0.913417         1.029204
 H         2.170822         2.488226         0.913330
 H         3.701188         2.688115         0.113018
