19
Iteration:   298
 C         0.760011         2.968893        -1.781000
 C         1.880615         1.923415        -1.290691
 C         3.121817         1.497695        -2.217380
 C         3.236108         0.213183        -1.359800
 O         3.817766        -1.033455        -1.632030
 C         1.760278         0.342391        -0.747863
 C         2.969677         0.728190         0.059694
 O         3.558822        -0.128279         0.934384
 C         2.730983         2.281884        -0.013490
 H         0.073797         3.219710        -0.929960
 H         1.369186         3.893522        -2.072032
 H         0.188059         2.621452        -2.661247
 H         2.785096         1.302130        -3.265217
 H         3.997998         2.118784        -2.089468
 H         4.255368        -1.336040        -0.862889
 H         0.964570        -0.490712        -0.506668
 H         3.518461         0.192944         1.875030
 H         2.023652         2.667075         0.782426
 H         3.525511         2.849848        -0.294074
