19
Iteration:  2249charge 0 multiplicity 1
 C         0.792554         2.873735        -1.748946
 C         1.983993         1.952707        -1.344674
 C         3.156847         1.438946        -2.197686
 C         3.166594         0.212884        -1.317172
 O         3.678959        -1.016064        -1.672376
 C         1.755193         0.441581        -0.824082
 C         2.965587         0.732533         0.066857
 O         3.650283        -0.082363         0.995627
 C         2.692710         2.254001         0.004583
 H         0.298830         3.037554        -0.782114
 H         1.210928         3.830055        -2.186325
 H         0.357889         2.561374        -2.658940
 H         3.077662         1.298747        -3.300509
 H         4.057374         2.029515        -2.081179
 H         4.434991        -1.341211        -1.201088
 H         0.754046        -0.002588        -0.588079
 H         3.094048        -0.163965         1.778051
 H         1.954154         2.469576         0.751062
 H         3.570001         2.901752         0.039504
