19
Iteration:   542charge 0 multiplicity 1
 C         0.808568         2.805558        -1.639026
 C         1.932764         1.971101        -1.270136
 C         3.097479         1.416209        -2.376817
 C         3.166129         0.111050        -1.388955
 O         3.942074        -0.926814        -1.607535
 C         1.747555         0.509961        -0.761023
 C         2.988501         0.712207        -0.064534
 O         3.416577        -0.064536         1.002315
 C         2.833010         2.215990        -0.016843
 H         0.137572         3.136728        -0.780343
 H         1.148385         3.773345        -1.966067
 H         0.166892         2.331653        -2.427902
 H         2.697044         1.330737        -3.443212
 H         3.911151         2.174977        -2.513178
 H         4.288882        -1.153467        -0.729818
 H         0.726332         0.025851        -0.106907
 H         2.743151        -0.109528         1.727130
 H         2.163645         2.449247         0.870385
 H         3.638778         2.919558        -0.133649
