19
Iteration:  4859
 C         0.749099         2.768487        -1.693581
 C         2.076464         1.922317        -1.369982
 C         3.212886         1.458918        -2.317931
 C         3.164511         0.207606        -1.325950
 O         3.745224        -1.009522        -1.731807
 C         1.764766         0.523983        -0.857418
 C         3.018773         0.700660         0.133403
 O         3.431850        -0.029594         1.197308
 C         2.723825         2.179770        -0.043776
 H         0.100118         2.701392        -0.837800
 H         0.886072         3.784204        -1.905178
 H         0.425764         2.275006        -2.620101
 H         2.989561         1.283647        -3.327494
 H         4.091483         2.045459        -2.313795
 H         4.608546        -0.681243        -2.153076
 H         0.982200        -0.096093        -0.600414
 H         3.204410         0.474206         2.052794
 H         2.051034         2.601020         0.716536
 H         3.540497         3.015387        -0.139265
