19
Iteration:  1278charge 0 multiplicity 1
 C         0.883547         2.857529        -1.854419
 C         1.874424         1.921659        -1.275126
 C         3.041829         1.496003        -2.225710
 C         3.275546         0.258992        -1.429303
 O         3.699067        -1.071864        -1.567145
 C         1.730390         0.429156        -0.726261
 C         3.035229         0.673901         0.008608
 O         3.591930         0.056865         1.079061
 C         2.667054         2.211837         0.053678
 H        -0.033747         3.050296        -1.266885
 H         1.332019         3.849571        -2.051113
 H         0.624635         2.430305        -2.788866
 H         2.804811         1.299913        -3.317087
 H         3.863115         2.294219        -2.337183
 H         4.641777        -1.215492        -1.844053
 H         0.955127        -0.165294        -0.413145
 H         3.744242        -0.921305         0.929735
 H         2.095618         2.409843         0.962961
 H         3.454408         2.947420        -0.057094
