19
Iteration:  4645
 C         0.973193         2.883742        -1.836686
 C         1.987704         1.918538        -1.321842
 C         3.097550         1.444068        -2.339151
 C         3.111158         0.241779        -1.323741
 O         3.769324        -0.914803        -1.587623
 C         1.733172         0.356495        -0.835419
 C         2.910328         0.742951         0.080492
 O         3.646521        -0.070772         1.087403
 C         2.628905         2.179267         0.060500
 H         0.318123         2.962157        -0.979038
 H         1.433866         3.950459        -1.857840
 H         0.371360         2.802626        -2.746966
 H         2.776884         1.144912        -3.373703
 H         3.881416         2.138649        -2.512548
 H         4.654729        -0.919109        -1.141397
 H         0.909708        -0.414073        -0.858184
 H         2.972234        -0.693291         1.435577
 H         1.711621         2.490510         0.627714
 H         3.256926         3.029503         0.218411
