19
Iteration:  1462
 C         0.839556         2.835615        -1.772392
 C         1.999113         1.998588        -1.309144
 C         3.058830         1.407997        -2.364129
 C         3.159364         0.254242        -1.314029
 O         3.749028        -1.016779        -1.620159
 C         1.796179         0.465514        -0.778774
 C         2.962442         0.718127         0.084864
 O         3.534018        -0.015891         1.146183
 C         2.743696         2.218375         0.046306
 H         0.034218         2.887283        -1.000148
 H         1.138811         3.888635        -1.979763
 H         0.602870         2.305159        -2.669870
 H         2.467669         0.970147        -3.136731
 H         3.855056         2.052883        -2.701814
 H         3.924942        -1.017327        -2.545199
 H         0.994318        -0.284197        -0.854356
 H         4.315202        -0.494308         0.913770
 H         1.965384         2.556986         0.788505
 H         3.700130         2.806271         0.287579
