19
Iteration:  1166
 C         0.803287         2.757554        -1.669592
 C         2.030640         1.938979        -1.323152
 C         3.171521         1.358899        -2.355212
 C         3.149098         0.226676        -1.348836
 O         3.762429        -0.972879        -1.820400
 C         1.789299         0.472480        -0.807562
 C         2.931219         0.702733         0.102440
 O         3.461890         0.129366         1.288499
 C         2.783390         2.257303        -0.027112
 H         0.061154         2.717925        -0.848614
 H         0.961383         3.804099        -1.880024
 H         0.381395         2.238671        -2.555738
 H         2.539981         1.099241        -3.231111
 H         4.074523         1.990071        -2.728519
 H         4.668552        -1.039212        -1.507307
 H         0.980548        -0.305434        -0.932258
 H         3.170444        -0.776683         1.311088
 H         2.154133         2.497612         0.780594
 H         3.755731         2.633259        -0.127755
