19
Iteration:  4269
 C         0.830860         2.885717        -1.711387
 C         1.982716         1.989197        -1.282176
 C         3.094540         1.362849        -2.361346
 C         3.298058         0.246824        -1.358194
 O         3.963083        -0.964894        -1.584945
 C         1.781276         0.381794        -0.878470
 C         2.899130         0.716267         0.046646
 O         3.415989        -0.018028         1.166639
 C         2.722215         2.258082         0.017979
 H         0.161132         3.107587        -0.871049
 H         1.213680         3.747452        -2.214174
 H         0.188319         2.474329        -2.521663
 H         2.581126         1.286949        -3.292424
 H         3.987904         1.917436        -2.646352
 H         3.277899        -1.483255        -1.988909
 H         0.837619        -0.035979        -0.917208
 H         3.030026        -0.881233         1.095811
 H         1.963423         2.494343         0.812045
 H         3.641997         2.942118         0.187965
