19
Iteration:  1317
 C         0.825175         2.774348        -1.692101
 C         2.030817         1.918685        -1.333852
 C         3.096280         1.386332        -2.467352
 C         3.221494         0.265248        -1.370782
 O         3.695081        -0.957772        -1.734521
 C         1.801773         0.451646        -0.790206
 C         2.932591         0.702783         0.054708
 O         3.474111         0.082773         1.316219
 C         2.794645         2.194708         0.005432
 H         0.141318         2.718078        -0.808129
 H         1.047875         3.822437        -1.887575
 H         0.179986         2.381327        -2.548804
 H         2.609471         1.039301        -3.337987
 H         3.963437         1.970106        -2.601297
 H         4.679257        -0.854226        -1.683769
 H         0.806033        -0.118431        -0.706493
 H         3.806753        -0.800459         1.103033
 H         2.099345         2.635385         0.756416
 H         3.761274         2.814563         0.159411
