19
Iteration:  1978charge 0 multiplicity 1
 C         0.886855         2.880984        -1.722739
 C         1.982317         1.968462        -1.348085
 C         3.009987         1.416182        -2.345809
 C         3.162024         0.298510        -1.416944
 O         3.793337        -0.914653        -1.642779
 C         1.747283         0.413767        -0.806301
 C         2.928946         0.662161         0.077739
 O         3.569481        -0.088475         1.100432
 C         2.741527         2.174067         0.023225
 H         0.105628         2.836716        -0.969238
 H         1.374229         3.864221        -1.592622
 H         0.547812         2.517829        -2.697064
 H         2.597989         1.024397        -3.304368
 H         3.797952         2.047075        -2.637911
 H         4.400653        -1.234174        -0.951030
 H         0.943400        -0.220038        -0.896072
 H         3.088518         0.003110         1.935626
 H         2.304131         2.610423         1.010369
 H         3.766524         2.757876        -0.142107
