19
Iteration:   910
 C         0.895508         2.915147        -1.801762
 C         1.877643         1.962821        -1.260761
 C         2.960889         1.520576        -2.263306
 C         3.181691         0.205500        -1.371833
 O         3.930840        -1.037293        -1.667172
 C         1.755988         0.337035        -0.799044
 C         2.969265         0.679137        -0.000966
 O         3.518791         0.014252         1.074064
 C         2.758060         2.169769         0.004552
 H         0.224423         3.296548        -0.968639
 H         1.343180         3.955963        -2.110074
 H         0.321563         2.431926        -2.581811
 H         2.464558         1.112625        -3.175372
 H         3.929854         2.136779        -2.418220
 H         4.058763        -1.392270        -0.738206
 H         0.954952        -0.252082        -0.541051
 H         2.999524         0.373795         1.778606
 H         2.086677         2.449758         0.864353
 H         3.879039         2.698220        -0.093949
