19
Iteration:  3811
 C         0.753074         2.828636        -1.763887
 C         2.068333         1.989860        -1.321932
 C         3.060957         1.438350        -2.360748
 C         3.221041         0.241034        -1.407905
 O         3.817461        -0.998783        -1.708804
 C         1.819253         0.544137        -0.752005
 C         3.031224         0.685957         0.086455
 O         3.341080        -0.039124         1.157308
 C         2.787472         2.162985         0.032911
 H         0.205046         3.178923        -0.953549
 H         1.066295         3.731410        -2.250368
 H         0.236510         2.185632        -2.450198
 H         2.631836         1.223144        -3.345938
 H         4.047638         1.898262        -2.560821
 H         3.793516        -1.404791        -0.788806
 H         1.012881        -0.247648        -0.665111
 H         4.282786        -0.075688         1.433140
 H         2.002263         2.482691         0.750295
 H         3.525354         2.872096         0.114881
