19
Iteration:  4937charge 0 multiplicity 1
 C         0.931242         2.949729        -1.799593
 C         1.983124         1.935009        -1.304488
 C         3.028915         1.357224        -2.311226
 C         3.136834         0.197202        -1.352871
 O         3.969027        -0.866356        -1.574218
 C         1.615540         0.369764        -0.713369
 C         2.858288         0.671576         0.098240
 O         3.598940        -0.096715         0.904339
 C         2.680302         2.285199        -0.004315
 H         0.216388         3.171370        -0.992282
 H         1.375903         3.871377        -2.151805
 H         0.306521         2.417583        -2.577478
 H         2.676935         0.890876        -3.200424
 H         3.967608         1.902416        -2.344058
 H         4.393533        -0.891493        -0.709002
 H         0.593115        -0.124008        -0.502378
 H         3.063174        -0.431254         1.671914
 H         2.002861         2.610194         0.775621
 H         3.751860         2.731621         0.007026
