19
Iteration:  3282charge 0 multiplicity 1
 C         0.891258         2.991028        -1.728391
 C         1.913737         1.928311        -1.332023
 C         3.025993         1.330867        -2.310930
 C         3.184329         0.218174        -1.451702
 O         3.906160        -0.921516        -1.660388
 C         1.764152         0.425973        -0.813400
 C         2.989312         0.746339         0.102853
 O         3.459699        -0.183972         1.146873
 C         2.707518         2.249545        -0.023069
 H         0.128867         3.110725        -0.896171
 H         1.399959         3.982510        -1.851299
 H         0.305833         2.773458        -2.650199
 H         2.435980         1.087545        -3.162198
 H         3.871104         1.934015        -2.673643
 H         3.992247        -1.405747        -0.777621
 H         0.752832        -0.180417        -0.801250
 H         4.152994        -0.093276         1.871076
 H         1.960105         2.817833         0.587088
 H         3.671754         2.898710        -0.136389
