19
Iteration:  2658charge 0 multiplicity 1
 C         0.809750         2.824354        -1.572191
 C         1.989247         1.928620        -1.260227
 C         3.117567         1.446338        -2.348426
 C         3.183798         0.195029        -1.418656
 O         3.742064        -1.049735        -1.554335
 C         1.702064         0.503822        -0.847652
 C         2.993455         0.718956        -0.058394
 O         3.443882        -0.010299         1.067984
 C         2.962801         2.222659        -0.041146
 H        -0.044929         2.812451        -0.976186
 H         1.093996         3.865503        -1.786101
 H         0.428012         2.453563        -2.516769
 H         2.396116         1.067917        -3.163244
 H         4.012452         2.137053        -2.638897
 H         4.687241        -0.921658        -1.755391
 H         0.746433        -0.080976        -0.676124
 H         2.667403        -0.039543         1.618182
 H         2.353788         2.681288         0.820414
 H         3.822111         2.829522         0.033540
