19
Iteration:   882
 C         0.888121         2.794887        -1.753255
 C         1.956409         1.895058        -1.340112
 C         3.033534         1.315537        -2.348697
 C         3.052483         0.256803        -1.306454
 O         3.923762        -0.825198        -1.775080
 C         1.754920         0.462453        -0.752887
 C         2.961865         0.738301         0.118473
 O         3.486380        -0.083101         1.156960
 C         2.840643         2.274242        -0.008576
 H         0.145315         2.999864        -0.983448
 H         1.217783         3.755244        -1.985450
 H         0.248500         2.458126        -2.621844
 H         2.725707         0.935994        -3.335444
 H         4.046757         1.702737        -2.424514
 H         3.888877        -1.645112        -1.293510
 H         0.709853        -0.176268        -0.790756
 H         2.961900         0.185277         1.933931
 H         2.144726         2.670379         0.719929
 H         3.740238         2.731713        -0.017039
