19
Iteration:    92
 C         0.864674         2.796401        -1.814469
 C         1.949651         1.993197        -1.157149
 C         3.040992         1.470417        -2.321265
 C         3.137129         0.204359        -1.488889
 O         3.793927        -0.994295        -1.711917
 C         1.755511         0.487560        -0.737864
 C         3.044801         0.636232        -0.017819
 O         3.524793         0.054264         1.156078
 C         2.786417         2.203386         0.099310
 H        -0.061397         2.958637        -1.292561
 H         1.155893         3.811339        -2.048138
 H         0.615843         2.252869        -2.712261
 H         2.371404         1.267442        -3.194489
 H         3.948148         1.993470        -2.584234
 H         4.458283        -0.975549        -1.048227
 H         0.857581        -0.197650        -0.521903
 H         3.039067        -0.796624         1.378945
 H         2.082052         2.226886         0.918015
 H         3.727214         2.934138        -0.126169
