19
Iteration:   740charge 0 multiplicity 1
 C         0.828012         2.890037        -1.832503
 C         1.937687         1.962930        -1.198608
 C         3.001270         1.492275        -2.323979
 C         3.165161         0.226808        -1.376499
 O         3.850196        -0.977314        -1.737208
 C         1.799223         0.326527        -0.822666
 C         2.994267         0.677783         0.110243
 O         3.509122        -0.044139         1.144103
 C         2.823003         2.239732         0.039044
 H        -0.019889         3.082482        -1.205383
 H         1.239000         3.827631        -2.084897
 H         0.414280         2.349426        -2.730784
 H         2.586763         1.194032        -3.331153
 H         3.859315         2.114883        -2.640314
 H         4.020495        -1.433459        -0.866843
 H         0.997140        -0.395215        -0.665204
 H         2.952162         0.091973         1.948761
 H         2.165320         2.742293         0.835435
 H         3.699107         2.900904        -0.294443
