19
Iteration:   355
 C         0.818028         2.880573        -1.732708
 C         1.992907         1.948845        -1.385581
 C         2.954923         1.387328        -2.348503
 C         3.196636         0.243318        -1.365396
 O         3.865034        -0.930289        -1.737748
 C         1.739919         0.419834        -0.798002
 C         2.913867         0.687422         0.156123
 O         3.516045        -0.001429         1.137067
 C         2.877745         2.175323         0.067490
 H         0.187159         3.015900        -0.786173
 H         1.267391         3.893647        -1.940904
 H         0.231543         2.494358        -2.598857
 H         2.632536         1.113492        -3.375080
 H         3.756878         2.115018        -2.438636
 H         4.430256        -1.300837        -0.995388
 H         0.935847        -0.170202        -0.826102
 H         2.894402        -0.697000         1.331330
 H         2.175477         2.689095         0.703132
 H         3.707388         2.772332         0.031284
