19
Iteration:   593charge 0 multiplicity 1
 C         0.851312         2.834710        -1.839869
 C         1.892630         1.901287        -1.324224
 C         3.059740         1.515614        -2.289138
 C         3.229104         0.255608        -1.359016
 O         3.721014        -0.915648        -1.756558
 C         1.787002         0.394337        -0.752087
 C         2.966480         0.647177         0.086413
 O         3.598816         0.004258         1.136335
 C         2.796430         2.145276         0.095095
 H         0.047363         2.944760        -1.104601
 H         1.325004         3.826046        -2.076679
 H         0.438685         2.493815        -2.776784
 H         2.727544         0.989268        -3.213476
 H         3.969139         2.266963        -2.415754
 H         3.857539        -1.320197        -0.901008
 H         1.025623        -0.389970        -0.884329
 H         2.958512        -0.092739         1.835024
 H         2.058578         2.730799         0.730812
 H         3.726486         2.733908        -0.061430
