19
Iteration:  4826charge 0 multiplicity 1
 C         0.864493         2.851315        -1.775707
 C         1.913284         1.924663        -1.186166
 C         3.127694         1.477009        -2.337001
 C         3.190868         0.177829        -1.370973
 O         3.820250        -1.027449        -1.628735
 C         1.770957         0.395839        -0.861171
 C         2.988529         0.704060         0.044707
 O         3.465731         0.031792         1.115777
 C         2.709902         2.190334         0.087125
 H        -0.106782         2.961119        -1.324531
 H         1.403556         3.725163        -1.914820
 H         0.605521         2.486216        -2.775085
 H         2.669856         1.430323        -3.272662
 H         4.020047         2.037619        -2.353714
 H         4.155111        -0.963505        -2.547668
 H         1.046054        -0.365111        -0.808134
 H         3.340953         0.350348         2.021386
 H         2.136743         2.697893         0.871238
 H         3.602944         2.837976        -0.271940
