19
Iteration:   151
 C         0.807855         2.928786        -1.697147
 C         1.900226         1.870012        -1.362836
 C         3.130249         1.418297        -2.228972
 C         3.101980         0.225965        -1.375888
 O         3.805379        -0.938978        -1.613879
 C         1.725257         0.347884        -0.849541
 C         3.007629         0.715544         0.035154
 O         3.568212        -0.075305         0.995716
 C         2.773398         2.228487         0.002516
 H         0.246847         3.033460        -0.750212
 H         1.236523         3.836610        -2.083740
 H         0.056876         2.561530        -2.423714
 H         2.853107         1.164232        -3.230530
 H         3.978902         2.103785        -2.260098
 H         4.343849        -1.078502        -0.768026
 H         0.939622        -0.350371        -0.924299
 H         3.519278         0.270629         1.862051
 H         2.140288         2.706063         0.824498
 H         3.587638         3.080322        -0.028062
