19
Iteration:  3825
 C         0.857521         2.787822        -1.790348
 C         1.933118         1.988593        -1.272347
 C         3.115057         1.453975        -2.301212
 C         3.206321         0.219763        -1.375893
 O         3.758964        -1.005981        -1.715243
 C         1.779919         0.499743        -0.876114
 C         3.103381         0.736640        -0.007435
 O         3.375936        -0.046466         1.239331
 C         2.787726         2.239336         0.093726
 H         0.105093         2.894490        -0.965567
 H         1.111982         3.704429        -2.482062
 H         0.185344         2.279824        -2.551681
 H         2.508382         0.997318        -3.175532
 H         3.850080         2.214613        -2.556196
 H         3.921251        -1.560936        -0.943157
 H         0.850836        -0.000751        -0.881366
 H         4.375436        -0.082883         1.166195
 H         2.125724         2.224704         0.928589
 H         3.648494         2.987978         0.051085
