19
Iteration:  2205charge 0 multiplicity 1
 C         0.889774         2.853347        -1.765093
 C         2.006456         1.900920        -1.281909
 C         2.977373         1.459058        -2.326545
 C         3.153755         0.280371        -1.338690
 O         3.821513        -0.929644        -1.681948
 C         1.749075         0.499427        -0.809601
 C         2.981595         0.689733         0.066110
 O         3.500095        -0.117861         1.087361
 C         2.881040         2.200426         0.040388
 H         0.269099         3.179174        -0.885294
 H         1.075478         3.738021        -2.470305
 H         0.369745         2.244174        -2.507656
 H         2.455047         1.001981        -3.212428
 H         3.627700         2.282158        -2.642526
 H         3.899127        -1.200550        -0.772455
 H         0.886844        -0.146363        -0.774706
 H         2.889837        -0.502826         1.700879
 H         2.174983         2.683298         0.665789
 H         3.786657         2.808804         0.011011
