19
Iteration:   679
 C         0.804096         2.864567        -1.722754
 C         1.916255         1.923083        -1.344316
 C         2.971700         1.568211        -2.346487
 C         3.202018         0.219335        -1.467985
 O         3.885098        -1.030701        -1.530749
 C         1.773974         0.474637        -0.846824
 C         2.962858         0.691105         0.063978
 O         3.490325        -0.054012         1.041308
 C         2.864872         2.179601         0.023880
 H         0.200064         3.056772        -0.763671
 H         1.220883         4.011093        -1.910304
 H         0.170417         2.332971        -2.477251
 H         2.604156         1.055610        -3.228534
 H         3.854215         2.224647        -2.266777
 H         4.431008        -1.344642        -0.731872
 H         0.897012        -0.345295        -0.797469
 H         2.943625        -0.131118         1.828745
 H         2.175985         2.668175         0.675066
 H         3.790463         2.706305        -0.201554
