19
Iteration:  2234
 C         0.853513         2.851314        -1.769824
 C         1.952790         1.950978        -1.243551
 C         3.200500         1.455043        -2.271072
 C         3.058583         0.179678        -1.470663
 O         3.774227        -1.065933        -1.688677
 C         1.721241         0.496274        -0.753486
 C         3.003578         0.735714         0.009840
 O         3.565384        -0.021910         1.008045
 C         2.769059         2.227224         0.105659
 H         0.075253         3.162304        -1.042088
 H         1.148036         3.792299        -2.159058
 H         0.125471         2.197776        -2.369477
 H         2.829705         1.367670        -3.255750
 H         4.150354         2.030006        -2.187383
 H         4.160713        -1.101114        -0.777651
 H         1.023689        -0.260339        -0.773772
 H         2.966687        -0.234975         1.728113
 H         2.065918         2.548425         0.953150
 H         3.553909         3.071866         0.096991
