19
Iteration:  1646charge 0 multiplicity 1
 C         0.816024         2.910190        -1.646012
 C         1.934072         1.988784        -1.376938
 C         3.053900         1.436948        -2.342488
 C         3.155468         0.154902        -1.501393
 O         3.805990        -1.030759        -1.636654
 C         1.816848         0.410412        -0.752458
 C         3.065607         0.702663         0.006471
 O         3.490253        -0.025243         1.114458
 C         2.768390         2.256234         0.012904
 H         0.230330         3.044007        -0.727067
 H         1.066847         3.950766        -1.865044
 H         0.212756         2.593256        -2.472908
 H         2.950631         1.178189        -3.438021
 H         3.977505         2.030866        -2.268564
 H         4.384102        -1.079430        -0.821629
 H         0.985284        -0.290635        -0.423375
 H         2.677751        -0.541658         1.354215
 H         2.151153         2.625782         0.812424
 H         3.543495         2.987425         0.012563
