19
Iteration:  1056
 C         0.857088         2.902176        -1.713678
 C         1.877182         1.886557        -1.238920
 C         3.026087         1.450502        -2.358590
 C         3.150243         0.187584        -1.480217
 O         4.009484        -0.949460        -1.626479
 C         1.683784         0.389976        -0.820391
 C         2.938228         0.697186         0.028181
 O         3.473431        -0.032767         1.116078
 C         2.811362         2.199943        -0.061531
 H         0.313654         3.170403        -0.797998
 H         1.307427         3.798719        -2.129775
 H         0.103651         2.423061        -2.427304
 H         2.680382         1.155601        -3.321941
 H         3.906562         2.106438        -2.252186
 H         3.923213        -1.454999        -0.726439
 H         0.871581        -0.205378        -0.513403
 H         3.274596         0.560105         1.909178
 H         2.235481         2.627742         0.838741
 H         3.773880         2.888071        -0.064511
