19
Iteration:  3548charge 0 multiplicity 1
 C         0.937620         2.859617        -1.790246
 C         1.960644         1.908226        -1.327594
 C         3.033454         1.522684        -2.306040
 C         3.125025         0.244488        -1.420819
 O         3.731176        -1.015665        -1.651349
 C         1.805482         0.428708        -0.801477
 C         2.999847         0.756733         0.081725
 O         3.496957        -0.116776         1.098593
 C         2.731445         2.242837         0.058408
 H         0.031195         2.779880        -1.131017
 H         1.299360         3.902300        -1.990289
 H         0.525421         2.479742        -2.753957
 H         2.706196         1.209020        -3.312524
 H         3.942026         2.143875        -2.357984
 H         4.094687        -1.440184        -0.844379
 H         1.107361        -0.436588        -0.615619
 H         4.142187         0.440700         1.612175
 H         2.092055         2.370376         0.984553
 H         3.520617         3.033562        -0.061853
