19
Iteration:  1502charge 0 multiplicity 1
 C         0.808511         2.874383        -1.636546
 C         1.987580         1.924724        -1.289747
 C         3.005021         1.439455        -2.322786
 C         3.209946         0.213354        -1.418850
 O         3.968673        -0.958926        -1.621794
 C         1.770829         0.409438        -0.707298
 C         3.001478         0.761576         0.049152
 O         3.252074        -0.030178         1.081963
 C         2.893492         2.197512        -0.081782
 H         0.149808         3.075237        -0.767138
 H         1.093160         3.810439        -2.103872
 H         0.111358         2.413118        -2.404777
 H         2.586552         1.048961        -3.369324
 H         3.966391         2.071553        -2.293421
 H         3.319147        -1.688063        -1.865762
 H         1.106751        -0.309916        -0.419658
 H         4.248407        -0.151520         0.993722
 H         2.301393         2.747464         0.672758
 H         3.702288         2.892362        -0.288558
