19
Iteration:  3061charge 0 multiplicity 1
 C         0.868140         2.865626        -1.789303
 C         1.982267         1.905881        -1.302537
 C         3.107571         1.483697        -2.252909
 C         3.138203         0.214019        -1.404235
 O         3.679177        -1.016120        -1.751474
 C         1.747547         0.362051        -0.820081
 C         2.951783         0.784415         0.181283
 O         3.600585        -0.027496         1.106062
 C         2.780016         2.290523         0.044111
 H         0.250515         2.968618        -0.938486
 H         1.256964         3.852160        -2.179345
 H         0.310046         2.469422        -2.672411
 H         2.708597         1.108412        -3.166983
 H         4.175073         1.767212        -2.034712
 H         4.572550        -1.001268        -1.409594
 H         0.747557        -0.226955        -0.765842
 H         3.059173        -0.824228         1.377841
 H         2.062847         2.808569         0.646983
 H         3.712626         2.830941         0.207593
