19
Iteration:  2794charge 0 multiplicity 1
 C         0.824131         2.870361        -1.701239
 C         2.010918         1.974059        -1.299351
 C         3.018715         1.508183        -2.341777
 C         3.112803         0.207000        -1.400477
 O         3.760160        -1.066429        -1.608478
 C         1.756413         0.508182        -0.846745
 C         2.967754         0.672301         0.047783
 O         3.569470        -0.078769         1.131038
 C         2.858263         2.237806        -0.034700
 H         0.047121         2.903749        -0.876112
 H         1.196334         3.874849        -1.787122
 H         0.342254         2.525377        -2.617910
 H         2.688833         1.149213        -3.289330
 H         3.947470         2.097973        -2.669074
 H         4.494705        -1.191303        -1.013368
 H         0.858864        -0.054920        -0.981240
 H         2.841547        -0.423128         1.731112
 H         2.301740         2.615263         0.869584
 H         3.661628         3.014109        -0.193303
