19
Iteration:   573
 C         0.808252         2.802370        -1.724152
 C         1.991791         1.980781        -1.278403
 C         3.067925         1.385543        -2.330194
 C         3.256607         0.230729        -1.298046
 O         3.809007        -0.919800        -1.729223
 C         1.765618         0.463395        -0.853544
 C         2.954674         0.756481         0.115691
 O         3.536271        -0.115651         1.120386
 C         2.764268         2.272235        -0.039024
 H         0.145979         2.866610        -0.871521
 H         1.213435         3.716456        -2.067122
 H         0.340308         2.353197        -2.578086
 H         2.400390         1.047060        -3.203863
 H         3.832700         2.264179        -2.626787
 H         3.867880        -1.609218        -1.001149
 H         0.875438        -0.300273        -1.062310
 H         3.007855        -0.118082         1.926782
 H         2.097342         2.630574         0.876516
 H         3.634171         2.947677        -0.145354
