19
Iteration:  4430charge 0 multiplicity 1
 C         0.839106         2.808080        -1.791543
 C         1.950419         1.970572        -1.319338
 C         3.074677         1.430397        -2.318499
 C         3.259460         0.294727        -1.350242
 O         3.988715        -0.909134        -1.497878
 C         1.748295         0.488521        -0.890318
 C         2.877827         0.662606         0.106811
 O         3.398882        -0.070099         1.121630
 C         2.771826         2.214786         0.021285
 H         0.224782         2.751981        -0.835928
 H         1.170390         3.787313        -2.129352
 H         0.068838         2.417887        -2.440269
 H         2.809638         1.115031        -3.294448
 H         4.008181         1.977357        -2.400601
 H         3.604625        -1.355902        -2.275888
 H         0.822516        -0.145262        -0.942869
 H         3.500600        -0.992473         0.926233
 H         2.045852         2.667682         0.627635
 H         3.531284         2.942520        -0.080571
