19
Iteration:  1309charge 0 multiplicity 1
 C         0.837018         2.804158        -1.737829
 C         1.963124         1.935075        -1.395554
 C         3.080284         1.425036        -2.390801
 C         3.233408         0.288334        -1.429667
 O         3.661808        -0.991233        -1.708528
 C         1.798298         0.402367        -0.805566
 C         3.004457         0.696043         0.113105
 O         3.495475         0.056782         1.298092
 C         2.761236         2.255046         0.087309
 H         0.118912         2.694046        -0.863999
 H         1.150642         3.837624        -1.937179
 H         0.351234         2.383132        -2.622536
 H         2.605643         0.917906        -3.256154
 H         3.913392         2.200135        -2.684545
 H         4.625551        -1.085208        -1.663462
 H         1.097632        -0.395535        -0.796096
 H         3.832021        -0.808572         1.089433
 H         2.199854         2.726533         0.891590
 H         3.686243         2.743429        -0.255943
