19
Iteration:   764charge 0 multiplicity 1
 C         0.946170         2.841630        -1.866148
 C         1.886822         1.879498        -1.267099
 C         2.982449         1.502990        -2.223481
 C         3.165837         0.222686        -1.361762
 O         3.801015        -0.971653        -1.669712
 C         1.722622         0.428232        -0.758220
 C         3.036649         0.667169        -0.004041
 O         3.566237         0.015549         1.058460
 C         2.745367         2.148589         0.039117
 H         0.161129         3.056957        -1.102715
 H         1.480760         3.826467        -1.928032
 H         0.403203         2.525061        -2.797353
 H         2.673637         1.417092        -3.317514
 H         3.916325         2.070418        -2.382092
 H         4.480264        -1.119970        -1.040637
 H         0.763594        -0.275722        -0.581434
 H         3.082857         0.296892         1.885394
 H         1.992876         2.148558         0.918163
 H         3.580340         2.984959         0.036383
