19
Iteration:  4253
 C         0.798713         2.905323        -1.727889
 C         1.958147         1.925922        -1.358743
 C         3.163594         1.372863        -2.370595
 C         3.126576         0.186726        -1.451217
 O         3.976900        -0.950427        -1.591822
 C         1.800560         0.507099        -0.816767
 C         2.989926         0.718704         0.065537
 O         3.322072         0.023022         1.211443
 C         2.755055         2.184279         0.093491
 H         0.214140         3.082857        -0.816072
 H         1.113109         3.947424        -2.033597
 H         0.171788         2.504064        -2.518377
 H         2.772510         0.909032        -3.333981
 H         4.071277         2.012164        -2.534706
 H         3.796861        -1.543197        -2.370978
 H         1.003638        -0.295271        -0.632415
 H         3.534502        -0.873148         0.918136
 H         2.086268         2.556115         0.864164
 H         3.583804         2.862901        -0.032606
