19
Iteration:  3697charge 0 multiplicity 1
 C         0.802156         2.859086        -1.827701
 C         1.973655         1.978925        -1.300401
 C         3.142556         1.423642        -2.216469
 C         3.076277         0.247404        -1.438356
 O         3.809279        -1.030748        -1.736104
 C         1.733345         0.385122        -0.785830
 C         3.008622         0.713998         0.089080
 O         3.514311        -0.072907         1.192771
 C         2.737388         2.275035         0.017573
 H         0.020888         3.151719        -1.066944
 H         1.210804         3.857750        -2.062794
 H         0.555206         2.489890        -2.831391
 H         2.917958         1.134942        -3.271999
 H         4.034608         2.105114        -2.228171
 H         3.622010        -1.472797        -0.921064
 H         0.845275        -0.227318        -0.951366
 H         4.382683         0.249341         1.391283
 H         2.205954         2.655356         0.939360
 H         3.574672         3.035983        -0.140968
