19
Iteration:  2739
 C         0.944188         2.945097        -1.859366
 C         1.898573         1.995352        -1.249539
 C         2.938904         1.456816        -2.304709
 C         3.084969         0.174704        -1.429939
 O         3.848515        -1.012211        -1.680002
 C         1.748237         0.460906        -0.782573
 C         2.982084         0.717906         0.068890
 O         3.676284        -0.082874         1.094080
 C         2.707562         2.195093         0.099010
 H         0.182894         3.389252        -1.140086
 H         1.483854         3.736488        -2.349030
 H         0.461162         2.385647        -2.705302
 H         2.528044         1.332683        -3.312399
 H         3.985555         1.942016        -2.315751
 H         3.493373        -1.762245        -1.213110
 H         0.922747        -0.025250        -0.423044
 H         3.317814         0.163025         1.983187
 H         2.126668         2.194255         1.027513
 H         3.693657         2.741394        -0.066221
