19
Iteration:  4390charge 0 multiplicity 1
 C         0.832507         2.885987        -1.695954
 C         1.970637         1.890807        -1.332471
 C         3.045234         1.435966        -2.278455
 C         3.279054         0.218861        -1.409967
 O         4.028980        -0.980197        -1.597342
 C         1.799508         0.432401        -0.895268
 C         2.932414         0.736451         0.009394
 O         3.271567        -0.034500         1.201350
 C         2.697676         2.204474        -0.014615
 H         0.123361         2.992963        -0.853444
 H         1.277771         3.859773        -1.935961
 H         0.373195         2.535356        -2.651001
 H         2.623061         1.522709        -3.395161
 H         3.980436         2.097338        -2.330065
 H         3.299221        -1.584952        -1.903966
 H         0.963648        -0.344151        -0.752306
 H         4.261376         0.097453         1.286345
 H         2.165668         2.495758         0.944125
 H         3.678686         2.828278        -0.041642
