19
Iteration:   949
 C         0.893930         2.831548        -1.742212
 C         2.054021         1.963329        -1.379373
 C         3.075934         1.401573        -2.322909
 C         3.157382         0.272875        -1.300144
 O         3.739308        -0.997015        -1.552314
 C         1.729801         0.431894        -0.866760
 C         2.908069         0.744323         0.152461
 O         3.682470        -0.058815         1.006270
 C         2.610695         2.246298         0.006223
 H         0.214792         2.990152        -0.892538
 H         1.259861         3.812532        -2.020912
 H         0.226826         2.547818        -2.575690
 H         2.754873         1.212034        -3.364950
 H         3.904824         2.070789        -2.416573
 H         4.749546        -1.115625        -1.466060
 H         0.829184        -0.259862        -0.788422
 H         3.195304        -0.672342         1.623631
 H         1.827353         2.628021         0.660145
 H         3.375217         2.904503         0.028490
