19
Iteration:   448charge 0 multiplicity 1
 C         0.836612         2.855668        -1.852572
 C         1.937423         1.892489        -1.254535
 C         3.080401         1.505958        -2.227701
 C         3.190804         0.221116        -1.388619
 O         3.743009        -0.958252        -1.745034
 C         1.733846         0.426026        -0.771688
 C         2.953940         0.669011         0.083776
 O         3.588849        -0.040663         1.070192
 C         2.744053         2.166667         0.048515
 H         0.035696         2.990214        -1.139417
 H         1.310123         3.847642        -1.939148
 H         0.506649         2.435246        -2.809995
 H         2.837016         1.343545        -3.308947
 H         4.022847         2.284517        -2.163169
 H         4.323845        -1.316624        -1.051563
 H         0.922721        -0.263133        -0.541508
 H         3.417185         0.360457         1.954434
 H         2.148937         2.544864         0.930099
 H         3.677098         2.833710        -0.170360
