19
Iteration:  3427charge 0 multiplicity 1
 C         0.981383         2.872696        -1.764733
 C         1.972037         1.856928        -1.330144
 C         3.067401         1.396559        -2.291448
 C         3.120630         0.281750        -1.337730
 O         3.864691        -0.882797        -1.691811
 C         1.741859         0.326250        -0.752473
 C         2.899652         0.759952         0.139416
 O         3.448582        -0.108439         1.103357
 C         2.754883         2.244708        -0.040370
 H         0.082550         2.915012        -1.078651
 H         1.374927         3.861532        -1.744225
 H         0.333781         2.786289        -2.621062
 H         2.653725         1.133698        -3.279054
 H         3.865333         2.077770        -2.449135
 H         3.650867        -1.616932        -1.101481
 H         0.789570        -0.129013        -0.789183
 H         4.367924         0.252113         1.098705
 H         2.087478         2.657245         0.675473
 H         3.566896         2.978109        -0.147566
