19
Iteration:   523
 C         0.818513         2.890092        -1.683463
 C         1.932570         1.944025        -1.290859
 C         2.973286         1.433317        -2.280031
 C         3.166657         0.231418        -1.427678
 O         3.937123        -0.965373        -1.568257
 C         1.714464         0.415337        -0.850403
 C         2.958506         0.772897         0.023015
 O         3.505632        -0.117275         1.054160
 C         2.857307         2.216429        -0.059772
 H         0.243834         3.043774        -0.734753
 H         1.252270         3.874507        -2.068833
 H         0.166257         2.416639        -2.492301
 H         2.456266         1.245628        -3.219358
 H         3.833741         2.008171        -2.398112
 H         4.392017        -0.901379        -0.737280
 H         0.803797        -0.265002        -0.837291
 H         2.791838        -0.387671         1.638033
 H         2.368288         2.624766         0.769373
 H         3.798124         2.745158        -0.251520
