19
Iteration:   236
 C         0.834996         2.866245        -1.768121
 C         1.933165         1.912915        -1.278959
 C         3.012256         1.460587        -2.250960
 C         3.143359         0.184885        -1.427923
 O         3.829365        -1.022694        -1.689633
 C         1.769458         0.435455        -0.824888
 C         3.043483         0.737032         0.056443
 O         3.547055        -0.051712         1.115088
 C         2.741816         2.294900         0.022575
 H         0.115452         3.040604        -0.941442
 H         1.233297         3.857492        -1.865215
 H         0.256055         2.610568        -2.641827
 H         2.637768         1.377880        -3.286557
 H         4.044160         1.888919        -2.391772
 H         4.309054        -1.225913        -0.894350
 H         1.073535        -0.217046        -0.690294
 H         2.914102        -0.723766         1.496696
 H         2.249607         2.767604         0.832287
 H         3.644401         3.034413        -0.150187
