19
Iteration:   531charge 0 multiplicity 1
 C         0.810062         2.872098        -1.637021
 C         1.950534         1.911166        -1.263336
 C         3.005482         1.484104        -2.279315
 C         3.145498         0.202353        -1.416378
 O         3.956564        -0.958360        -1.549925
 C         1.699976         0.478831        -0.831155
 C         3.007597         0.659907        -0.024424
 O         3.460889        -0.069958         1.003577
 C         2.864691         2.221651        -0.078836
 H         0.061784         3.113735        -0.825022
 H         1.223200         3.756618        -2.108894
 H         0.230703         2.372653        -2.464017
 H         2.613901         1.006941        -3.211112
 H         3.874860         2.095073        -2.422613
 H         4.496991        -1.107534        -0.792851
 H         0.625314        -0.095871        -0.534715
 H         2.682348        -0.224974         1.527065
 H         2.269651         2.596124         0.789052
 H         3.684109         2.904129        -0.238483
