19
Iteration:  2847charge 0 multiplicity 1
 C         0.875092         2.914400        -1.646258
 C         2.028270         1.931528        -1.327307
 C         3.047316         1.406635        -2.348348
 C         3.199720         0.195828        -1.376343
 O         3.732042        -1.017098        -1.747278
 C         1.736879         0.499650        -0.836810
 C         2.977499         0.745269         0.129660
 O         3.496445        -0.027083         1.250381
 C         2.808379         2.206903        -0.072269
 H         0.159453         2.928174        -0.796578
 H         1.164927         3.864255        -1.904794
 H         0.203014         2.461959        -2.411943
 H         2.518150         0.902790        -3.211866
 H         4.004047         2.033296        -2.427360
 H         4.675193        -1.078366        -1.693228
 H         0.837059        -0.076159        -0.683080
 H         3.145316        -0.971690         1.162142
 H         2.167263         2.977449         0.408798
 H         3.632082         2.791639        -0.137678
