19
Iteration:   426charge 0 multiplicity 1
 C         0.832940         2.806364        -1.747165
 C         2.010600         1.938178        -1.287166
 C         3.058830         1.384815        -2.280740
 C         3.161964         0.266009        -1.355126
 O         3.689649        -0.902192        -1.691556
 C         1.733265         0.470300        -0.931740
 C         3.004292         0.701885         0.148242
 O         3.612215        -0.104259         1.129913
 C         2.744456         2.260204         0.017103
 H         0.091860         2.783208        -0.962349
 H         1.113929         3.835577        -2.000266
 H         0.512366         2.183364        -2.587159
 H         2.510915         1.096650        -3.216763
 H         4.090799         1.966987        -2.605605
 H         4.604406        -1.021407        -1.334076
 H         0.995897        -0.193355        -1.450506
 H         3.165142         0.087489         1.964944
 H         2.015969         2.544138         0.827715
 H         3.751511         2.815200         0.206643
