19
Iteration:  2695
 C         0.872797         2.885796        -1.688901
 C         1.995713         1.872347        -1.299607
 C         3.078625         1.406870        -2.336466
 C         3.147035         0.227811        -1.380837
 O         3.728924        -0.983431        -1.758630
 C         1.745779         0.460443        -0.782242
 C         2.995144         0.702522         0.104233
 O         3.532176        -0.068527         1.163954
 C         2.810756         2.285904        -0.033498
 H         0.324337         3.259424        -0.767964
 H         1.380936         3.772825        -2.037726
 H         0.231906         2.450616        -2.516473
 H         2.737918         1.065462        -3.284106
 H         3.808636         2.136830        -2.650290
 H         4.380163        -1.269832        -1.120263
 H         0.882468        -0.159280        -0.576499
 H         2.860150        -0.292965         1.856990
 H         1.972549         2.718414         0.556336
 H         3.735127         2.972630        -0.322720
