19
Iteration:  2860charge 0 multiplicity 1
 C         0.872618         2.885386        -1.721934
 C         2.000218         1.966583        -1.373015
 C         3.070047         1.438063        -2.321153
 C         3.105112         0.238378        -1.376003
 O         3.699246        -0.989519        -1.758866
 C         1.753125         0.423200        -0.798483
 C         2.911980         0.609014         0.117724
 O         3.527932         0.043970         1.284010
 C         2.873030         2.195021        -0.034096
 H         0.317893         3.108919        -0.783029
 H         1.278500         3.837400        -2.003722
 H         0.258410         2.539082        -2.527118
 H         2.734121         1.145591        -3.312684
 H         3.962829         2.071704        -2.662891
 H         4.664011        -0.856250        -1.523419
 H         0.711703        -0.078056        -0.790454
 H         3.548139        -0.902547         1.191017
 H         2.308315         2.428755         0.881669
 H         3.780348         2.695804        -0.165871
