19
Iteration:   925
 C         0.860389         2.974166        -1.754670
 C         1.914054         1.878060        -1.312882
 C         3.033814         1.406945        -2.318112
 C         3.178288         0.220638        -1.431727
 O         3.810927        -1.000303        -1.567107
 C         1.778757         0.400855        -0.832448
 C         3.015893         0.704416         0.009500
 O         3.579982        -0.008881         1.055948
 C         2.707405         2.187353         0.066370
 H         0.117888         3.340254        -1.024932
 H         1.408769         3.780098        -2.204822
 H         0.194182         2.640499        -2.645077
 H         2.675856         1.290169        -3.317366
 H         3.800343         2.128719        -2.403049
 H         4.444454        -1.160735        -0.893975
 H         0.999000        -0.537666        -0.748284
 H         3.035879        -0.003111         1.887736
 H         2.037378         2.321921         0.913034
 H         3.413744         3.000303         0.114978
