19
Iteration:  3331
 C         0.863325         2.891282        -1.755343
 C         1.880544         1.968229        -1.224630
 C         3.083587         1.450436        -2.313899
 C         3.105403         0.194035        -1.429517
 O         3.917852        -0.968799        -1.701146
 C         1.766229         0.433650        -0.846600
 C         2.938934         0.664835         0.126261
 O         3.382608        -0.100176         1.178623
 C         2.834966         2.264794        -0.066524
 H         0.165363         3.199166        -0.941851
 H         1.315089         3.820588        -2.126913
 H         0.166147         2.436498        -2.485883
 H         2.716074         1.281746        -3.418816
 H         4.033668         2.044026        -2.363241
 H         4.173825        -1.463576        -0.938565
 H         0.968819        -0.222930        -0.688584
 H         4.298337        -0.066980         1.434497
 H         2.338275         2.536264         0.878875
 H         3.573670         3.054761        -0.250157
