19
Iteration:  2410
 C         0.911464         2.916599        -1.807529
 C         1.931426         1.895458        -1.291397
 C         3.063408         1.431994        -2.293163
 C         3.153672         0.280293        -1.330668
 O         3.724117        -0.999458        -1.684525
 C         1.704627         0.439041        -0.765708
 C         2.912566         0.732814         0.173313
 O         3.669602        -0.143796         1.024057
 C         2.747653         2.275288         0.033260
 H         0.361343         3.259444        -0.925179
 H         1.299607         3.724764        -2.340344
 H         0.162122         2.515529        -2.543833
 H         2.869371         1.051900        -3.275252
 H         4.023345         2.086016        -2.398849
 H         4.566282        -0.976652        -1.238566
 H         0.902946        -0.251565        -1.012637
 H         3.058963        -0.229230         1.745566
 H         1.972282         2.590543         0.719458
 H         3.626689         2.785917        -0.162505
