19
Iteration:  2540
 C         0.868636         2.953577        -1.752434
 C         1.966060         1.906967        -1.265695
 C         3.068434         1.372192        -2.321820
 C         3.149482         0.215306        -1.407632
 O         3.774804        -0.958639        -1.650395
 C         1.785897         0.506060        -0.734414
 C         3.002720         0.727783         0.045567
 O         3.563975        -0.169948         1.030094
 C         2.733215         2.245999        -0.007890
 H         0.241465         3.342519        -0.906577
 H         1.200417         3.821201        -2.361117
 H         0.076144         2.329899        -2.318385
 H         2.551881         1.066449        -3.199949
 H         3.968440         1.997065        -2.426627
 H         4.201151        -1.264321        -0.788265
 H         0.908569        -0.034365        -0.663777
 H         3.009033        -0.117639         1.819826
 H         2.209454         2.665818         0.817441
 H         3.565466         3.036816        -0.106803
