19
Iteration:  3358charge 0 multiplicity 1
 C         0.858667         2.774783        -1.798483
 C         1.986925         1.958862        -1.311676
 C         3.164647         1.449944        -2.305638
 C         3.222104         0.282642        -1.330497
 O         3.720357        -0.910414        -1.706061
 C         1.820539         0.386662        -0.784858
 C         2.993163         0.671569         0.097655
 O         3.397105        -0.108207         1.071225
 C         2.756542         2.327963         0.045022
 H         0.232325         2.933293        -0.916028
 H         1.233406         3.756848        -2.126563
 H         0.108473         2.354165        -2.462744
 H         2.773385         0.985321        -3.143242
 H         4.019174         2.060912        -2.599999
 H         3.637344        -1.607684        -1.078677
 H         0.820420        -0.120280        -0.704239
 H         4.224566         0.075523         1.487651
 H         2.202331         2.455542         0.979406
 H         3.475097         3.103416        -0.004490
