19
Iteration:  3668
 C         0.822494         2.685316        -1.761308
 C         2.056343         1.993442        -1.307811
 C         3.137759         1.434039        -2.251561
 C         3.139562         0.252330        -1.430665
 O         3.763692        -0.950049        -1.765872
 C         1.786461         0.441490        -0.791096
 C         2.981264         0.761943         0.059190
 O         3.340981         0.032991         1.155799
 C         2.868950         2.189702         0.078627
 H         0.169574         3.001677        -0.935323
 H         1.305802         3.520932        -2.275600
 H         0.288563         2.174139        -2.576353
 H         2.706808         0.995821        -3.136040
 H         3.929201         2.165426        -2.429666
 H         3.786554        -1.398032        -0.878784
 H         0.811348         0.037174        -0.597597
 H         4.275452        -0.247151         1.023316
 H         2.081363         2.375516         0.874688
 H         3.691117         2.881459         0.161755
