19
Iteration:  1432charge 0 multiplicity 1
 C         0.879399         2.881396        -1.794866
 C         1.844437         1.890517        -1.209807
 C         3.155128         1.514261        -2.203505
 C         3.039490         0.186279        -1.420268
 O         3.717455        -1.022772        -1.563674
 C         1.711922         0.411336        -0.790019
 C         3.025632         0.675630         0.065437
 O         3.672364         0.051952         1.089096
 C         2.679411         2.215401        -0.064333
 H        -0.098641         3.103648        -1.357612
 H         1.520980         3.746553        -2.077758
 H         0.689091         2.455767        -2.781153
 H         2.912623         1.364100        -3.239776
 H         4.030099         2.123949        -1.944311
 H         4.405036        -0.839737        -2.276435
 H         0.794609        -0.322638        -0.658041
 H         3.956441        -0.874274         0.850346
 H         2.190915         2.608366         0.833620
 H         3.568973         2.797320        -0.117430
