19
Iteration:  3042charge 0 multiplicity 1
 C         0.875916         2.834512        -1.761666
 C         1.923905         1.984849        -1.237597
 C         3.139347         1.487333        -2.237238
 C         3.140609         0.173301        -1.418208
 O         3.711079        -1.044794        -1.756988
 C         1.735022         0.502989        -0.777463
 C         3.005786         0.630695         0.031522
 O         3.525334         0.088102         1.178387
 C         2.762526         2.157312         0.004091
 H         0.238051         3.148231        -0.888772
 H         1.352032         3.727729        -2.176567
 H         0.475057         2.409732        -2.701961
 H         2.730410         1.164977        -3.287135
 H         4.014049         2.223140        -2.084200
 H         4.647975        -0.894679        -1.721231
 H         0.941813        -0.253258        -0.636363
 H         3.005538        -0.710530         1.432823
 H         2.339500         2.439887         0.949963
 H         3.709241         2.729191        -0.251815
