19
Iteration:  1218
 C         0.819704         2.916565        -1.735251
 C         1.905210         1.886738        -1.318231
 C         2.978715         1.438727        -2.330210
 C         3.161615         0.234137        -1.405143
 O         3.828110        -0.959349        -1.510055
 C         1.814988         0.372290        -0.800810
 C         2.996233         0.714265         0.011010
 O         3.444987        -0.037058         1.146609
 C         2.830868         2.235508        -0.027607
 H         0.158826         3.269606        -0.951758
 H         1.316280         3.770444        -2.219541
 H         0.129387         2.532655        -2.567618
 H         2.642586         1.092891        -3.277413
 H         3.810446         2.184658        -2.279532
 H         4.788969        -0.942794        -1.733645
 H         0.947697        -0.301648        -0.725876
 H         4.026788        -0.779138         0.893282
 H         2.161014         2.624125         0.784512
 H         3.792351         2.839452        -0.204296
