19
Iteration:  2112
 C         0.871966         2.924226        -1.743043
 C         1.893006         1.901548        -1.375455
 C         3.158663         1.465584        -2.257870
 C         3.189698         0.223662        -1.315005
 O         3.717076        -1.024604        -1.700246
 C         1.732209         0.469361        -0.798294
 C         2.915296         0.728747         0.090762
 O         3.708685        -0.097081         1.041173
 C         2.687181         2.236864         0.027290
 H         0.160755         2.805198        -0.943007
 H         1.035559         3.951950        -1.830315
 H         0.372776         2.723883        -2.704517
 H         2.855035         1.076950        -3.192398
 H         3.964029         2.149922        -2.419111
 H         4.138765        -1.390121        -0.871570
 H         0.821543        -0.261360        -0.973853
 H         3.205298        -0.306439         1.880869
 H         1.952474         2.805719         0.597685
 H         3.551611         2.914730         0.071084
