19
Iteration:  4050
 C         0.942747         2.838088        -1.766298
 C         1.963711         1.949200        -1.256085
 C         3.100174         1.392598        -2.352698
 C         3.151624         0.226982        -1.422392
 O         3.812594        -1.028112        -1.586221
 C         1.739995         0.412271        -0.878552
 C         2.842769         0.728030         0.144800
 O         3.486286         0.081267         1.160216
 C         2.729238         2.160093         0.035239
 H         0.076791         2.957592        -1.051696
 H         1.367559         3.865019        -1.813795
 H         0.411818         2.590289        -2.727962
 H         2.717126         1.175026        -3.303437
 H         3.946284         2.089500        -2.315558
 H         4.536456        -0.589428        -2.095146
 H         0.857567        -0.280310        -0.726591
 H         4.189040        -0.472750         0.677413
 H         2.061505         2.589219         0.761323
 H         3.642714         2.663348        -0.007244
