19
Iteration:  1697charge 0 multiplicity 1
 C         0.871209         2.849295        -1.713524
 C         1.981568         1.994445        -1.263340
 C         2.972267         1.349985        -2.378182
 C         3.084714         0.177690        -1.438283
 O         3.889238        -0.894305        -1.725442
 C         1.736062         0.452228        -0.855746
 C         3.003980         0.661826         0.083937
 O         3.468318         0.009503         1.206090
 C         2.893650         2.144507         0.049433
 H         0.254587         3.331268        -0.905302
 H         1.312689         3.806254        -2.099890
 H         0.144335         2.427669        -2.513409
 H         2.419778         1.045730        -3.274541
 H         3.765655         2.021581        -2.815975
 H         4.631914        -0.748208        -1.078757
 H         0.694736        -0.041718        -0.600226
 H         2.664542        -0.582259         1.391481
 H         2.197739         2.531227         0.905136
 H         3.917309         2.732082         0.105481
