19
Iteration:  4542charge 0 multiplicity 1
 C         0.836626         2.808294        -1.735439
 C         1.971451         1.892939        -1.276305
 C         3.108759         1.529976        -2.321556
 C         3.225742         0.224524        -1.399209
 O         3.920630        -0.971694        -1.682519
 C         1.803989         0.360529        -0.811103
 C         2.986429         0.787324        -0.002794
 O         3.233330        -0.056134         1.147340
 C         2.772884         2.240354         0.058030
 H        -0.074821         3.006385        -1.077769
 H         1.416108         3.709470        -1.963415
 H         0.428051         2.453141        -2.742365
 H         2.506512         1.306137        -3.172303
 H         4.041397         2.123670        -2.507188
 H         4.081826        -1.367567        -0.823693
 H         0.947562        -0.207405        -0.691425
 H         4.222625        -0.117757         1.266965
 H         2.157255         2.423190         0.882623
 H         3.573032         2.915048        -0.131830
