19
Iteration:  3706
 C         0.847052         2.924625        -1.844882
 C         1.928165         1.880494        -1.310198
 C         3.135506         1.429841        -2.269752
 C         3.121297         0.184059        -1.336112
 O         3.760055        -0.950181        -1.692120
 C         1.827964         0.404544        -0.795331
 C         2.962349         0.716585         0.128607
 O         3.522427        -0.086922         1.120850
 C         2.724942         2.273139        -0.024049
 H        -0.094798         3.006136        -1.235205
 H         1.398013         3.944015        -1.879827
 H         0.301782         2.689233        -2.787796
 H         2.675777         1.283693        -3.296470
 H         4.062741         2.039163        -2.272166
 H         3.737931        -1.561468        -0.964349
 H         1.007120        -0.323776        -0.660069
 H         4.322026         0.315787         1.420468
 H         2.015335         2.421863         0.797237
 H         3.723484         2.942169         0.053821
