19
Iteration:  1672
 C         0.895335         2.874575        -1.588755
 C         1.944941         1.964785        -1.296199
 C         2.986121         1.373920        -2.367289
 C         3.304086         0.276877        -1.351832
 O         3.844621        -0.950207        -1.726988
 C         1.712549         0.413426        -0.802915
 C         2.924842         0.691824         0.096501
 O         3.447316        -0.020889         1.166460
 C         2.813385         2.239194        -0.090734
 H         0.319367         3.270861        -0.775324
 H         1.233449         3.807790        -2.047321
 H         0.282197         2.388697        -2.356681
 H         2.666289         0.823281        -3.282358
 H         3.744347         2.191036        -2.692384
 H         4.227431        -1.334958        -0.870964
 H         1.064242        -0.392037        -0.948054
 H         2.928057        -0.872753         1.077737
 H         2.312082         2.910451         0.594830
 H         3.816895         2.662718        -0.296024
