19
Iteration:  2657
 C         0.813596         2.816031        -1.575111
 C         1.984229         1.928749        -1.269023
 C         3.114767         1.447359        -2.345495
 C         3.182393         0.205627        -1.409693
 O         3.738621        -1.047653        -1.553938
 C         1.705082         0.495413        -0.849532
 C         2.990858         0.722515        -0.049944
 O         3.447169        -0.016477         1.069011
 C         2.961390         2.225109        -0.046524
 H        -0.041553         2.822746        -0.961068
 H         1.108135         3.887257        -1.754481
 H         0.451174         2.453927        -2.505094
 H         2.392113         1.081392        -3.203737
 H         4.016498         2.124374        -2.676814
 H         4.704705        -0.942979        -1.765682
 H         0.761563        -0.022481        -0.685536
 H         2.670829        -0.029512         1.601368
 H         2.395476         2.665832         0.814617
 H         3.782030         2.817391         0.056924
