19
Iteration:   683
 C         0.812085         2.865249        -1.693711
 C         1.951335         1.952170        -1.332289
 C         3.004748         1.520490        -2.329092
 C         3.179604         0.185903        -1.488567
 O         3.903980        -1.029317        -1.557835
 C         1.780639         0.462845        -0.817998
 C         2.958859         0.704227         0.045109
 O         3.468567        -0.035615         1.028856
 C         2.845289         2.181957         0.019221
 H         0.214727         3.008248        -0.806719
 H         1.024186         3.882855        -1.960817
 H         0.132132         2.422717        -2.424063
 H         2.620288         1.068079        -3.250944
 H         3.851986         2.242232        -2.237971
 H         4.277775        -1.230548        -0.706398
 H         1.023917        -0.318720        -0.696967
 H         2.845379        -0.114904         1.782501
 H         2.127281         2.789172         0.707360
 H         3.777454         2.739769        -0.166537
