19
Iteration:  1789
 C         0.841650         2.828298        -1.763459
 C         1.984161         1.987987        -1.177823
 C         3.183379         1.478462        -2.224113
 C         3.112264         0.159163        -1.423881
 O         3.740354        -1.082843        -1.655780
 C         1.752605         0.430475        -0.878426
 C         2.968768         0.731831        -0.038048
 O         3.583215         0.004547         0.987294
 C         2.702385         2.230766         0.067069
 H        -0.014937         3.008969        -1.044213
 H         1.133599         3.920429        -1.671929
 H         0.525561         2.649765        -2.791726
 H         2.812037         1.327209        -3.268038
 H         4.111742         2.024957        -2.202824
 H         4.172678        -1.285732        -0.781921
 H         0.998339        -0.182855        -0.470392
 H         3.079162         0.025628         1.797213
 H         2.143038         2.521540         1.017584
 H         3.560601         2.999271        -0.020299
