19
Iteration:  3211
 C         0.822399         2.895831        -1.816226
 C         1.967880         1.968345        -1.273661
 C         3.188341         1.427876        -2.289275
 C         3.124691         0.285953        -1.316968
 O         3.740762        -1.005771        -1.708748
 C         1.786435         0.454148        -0.807480
 C         2.902394         0.718911         0.131930
 O         3.610012        -0.078679         1.059943
 C         2.734153         2.217655         0.021235
 H         0.186430         3.059239        -0.920654
 H         1.094192         3.918349        -2.163725
 H         0.192220         2.358776        -2.561079
 H         2.683710         1.239710        -3.268187
 H         4.147494         1.854529        -2.507981
 H         4.408706        -1.360422        -1.087160
 H         0.993550        -0.251161        -0.718787
 H         2.935915        -0.561965         1.617160
 H         2.065439         2.544493         0.862760
 H         3.607771         2.854670        -0.052741
