19
Iteration:  3759charge 0 multiplicity 1
 C         0.857127         3.011698        -1.747629
 C         1.967435         1.962399        -1.345436
 C         2.998646         1.388020        -2.380429
 C         3.130687         0.163096        -1.408296
 O         3.960370        -0.893155        -1.600920
 C         1.693863         0.369472        -0.775209
 C         2.914006         0.669006         0.036288
 O         3.415261        -0.093094         1.131020
 C         2.812001         2.203833        -0.015273
 H         0.166576         2.986008        -0.889340
 H         1.264802         4.065370        -2.030872
 H         0.369161         2.662205        -2.696006
 H         2.626372         0.902982        -3.331708
 H         3.838243         2.032918        -2.627552
 H         4.102667        -1.140723        -0.661211
 H         0.858954        -0.273163        -0.395573
 H         4.298580         0.109067         1.410869
 H         2.330387         2.512737         0.901613
 H         3.882646         2.637501         0.082063
