19
Iteration:  1530
 C         0.792337         2.884348        -1.659569
 C         1.994371         1.896692        -1.355876
 C         2.986766         1.411944        -2.383921
 C         3.117626         0.254629        -1.375711
 O         3.929525        -0.888074        -1.672374
 C         1.736456         0.443413        -0.894165
 C         2.985400         0.721828         0.142484
 O         3.397488        -0.124298         1.246769
 C         2.877658         2.223522        -0.043115
 H         0.331893         3.278274        -0.751957
 H         1.241389         3.835189        -2.075705
 H         0.122169         2.483958        -2.435045
 H         2.683752         0.888266        -3.215847
 H         3.822879         2.018161        -2.582396
 H         3.661405        -1.707085        -1.182719
 H         0.840916        -0.278337        -0.921219
 H         4.394026        -0.195645         1.109272
 H         2.221540         2.914052         0.540164
 H         3.797771         2.852273        -0.213141
