19
Iteration:  1257charge 0 multiplicity 1
 C         0.896354         2.845085        -1.835371
 C         1.986638         1.978539        -1.297395
 C         3.071323         1.339374        -2.266156
 C         3.033962         0.161946        -1.415550
 O         3.766883        -0.966762        -1.546782
 C         1.697618         0.398615        -0.796429
 C         2.964385         0.709290         0.100976
 O         3.669936         0.032314         1.051942
 C         2.675351         2.275577         0.100565
 H         0.107118         3.033369        -1.090968
 H         1.379103         3.821920        -2.061199
 H         0.558468         2.344989        -2.693687
 H         2.724818         1.374319        -3.360450
 H         4.013914         1.912072        -2.387597
 H         4.555058        -0.499774        -1.788206
 H         0.765581        -0.032386        -0.840774
 H         3.858339        -0.815600         0.625264
 H         1.818682         2.398732         0.768855
 H         3.559613         2.839223         0.286476
