19
Iteration:   609
 C         0.889409         2.870001        -1.847769
 C         1.942392         1.936178        -1.239753
 C         3.059896         1.456875        -2.227968
 C         3.088421         0.210326        -1.396719
 O         3.764111        -0.992490        -1.755944
 C         1.746842         0.348338        -0.818329
 C         3.042971         0.728200         0.070178
 O         3.624861         0.013760         1.128130
 C         2.709468         2.216542         0.043030
 H        -0.007778         3.096926        -1.250917
 H         1.227375         3.885997        -2.021871
 H         0.488881         2.447786        -2.805032
 H         2.640364         1.492484        -3.257518
 H         4.035497         2.055976        -2.156068
 H         4.348629        -1.328666        -1.000892
 H         0.933526        -0.422967        -0.689308
 H         2.954318        -0.049495         1.799992
 H         2.134978         2.246309         0.972062
 H         3.512103         2.963872         0.072992
