19
Iteration:  4563
 C         0.800120         2.859566        -1.760224
 C         2.013547         2.014595        -1.380283
 C         3.088859         1.349929        -2.306237
 C         3.230411         0.204057        -1.372735
 O         3.929405        -0.899259        -1.701270
 C         1.784594         0.495753        -0.816503
 C         2.915784         0.753469         0.051937
 O         3.301704        -0.226312         1.172645
 C         2.782057         2.271117         0.044088
 H         0.108824         2.807217        -0.802172
 H         0.989573         3.906261        -2.068635
 H         0.312174         2.208237        -2.540888
 H         2.669537         0.922721        -3.216794
 H         3.923104         2.173713        -2.438885
 H         4.492958        -1.142010        -0.946388
 H         0.957045        -0.114843        -0.734782
 H         3.934929         0.260259         1.677281
 H         2.061803         2.688548         0.699656
 H         3.703481         2.839935        -0.078216
