19
Iteration:  3587
 C         0.953613         2.957388        -1.748204
 C         1.950158         1.906611        -1.333427
 C         3.019079         1.350610        -2.382673
 C         3.113819         0.165150        -1.379335
 O         3.935777        -0.950560        -1.661959
 C         1.643597         0.409034        -0.828684
 C         2.911673         0.759891         0.084229
 O         3.495478        -0.045086         1.147264
 C         2.757453         2.175436         0.052344
 H         0.173386         3.004473        -0.950034
 H         1.321952         3.972110        -1.748999
 H         0.407630         2.608696        -2.645448
 H         2.610989         1.411694        -3.405674
 H         3.695777         2.227087        -2.481433
 H         4.087998        -1.317319        -0.734368
 H         0.671383        -0.052474        -0.690925
 H         4.476633        -0.122763         1.099970
 H         2.099773         2.604642         0.836587
 H         3.600353         2.825105        -0.000714
