19
Iteration:  3526
 C         0.793623         2.816722        -1.801232
 C         2.046729         1.955797        -1.195168
 C         3.129099         1.447251        -2.297015
 C         3.181616         0.215505        -1.469010
 O         3.763526        -1.008461        -1.672928
 C         1.757149         0.489792        -0.808329
 C         3.002313         0.739390         0.029131
 O         3.440002        -0.054327         1.085156
 C         2.807313         2.188738         0.094175
 H        -0.149208         2.975947        -1.163754
 H         1.054090         3.771490        -2.299265
 H         0.309917         2.295948        -2.696424
 H         2.528773         1.278421        -3.209169
 H         4.034471         2.065134        -2.415777
 H         4.149230        -1.478780        -0.943359
 H         0.678465         0.190325        -0.666919
 H         3.940395         0.435675         1.736464
 H         2.121141         2.303931         0.986111
 H         3.702919         2.850875         0.058801
