19
Iteration:   125
 C         0.864577         2.867348        -1.751504
 C         1.938768         1.906134        -1.340714
 C         3.081784         1.482934        -2.288441
 C         3.235440         0.280778        -1.355568
 O         3.752588        -1.022494        -1.608641
 C         1.770343         0.441046        -0.790593
 C         2.893845         0.668655         0.101921
 O         3.651661        -0.101389         0.992779
 C         2.654763         2.265170         0.012760
 H         0.211231         3.043590        -0.913300
 H         1.388131         3.772886        -2.078248
 H         0.252804         2.515190        -2.569417
 H         2.574695         1.175783        -3.241125
 H         3.795350         2.229519        -2.614397
 H         4.619182        -1.101595        -1.140388
 H         0.883544        -0.198915        -0.579059
 H         3.187989        -0.375957         1.772163
 H         2.069063         2.796197         0.764233
 H         3.518588         3.100545         0.011387
