19
Iteration:  2592charge 0 multiplicity 1
 C         0.961664         2.901636        -1.795663
 C         1.951672         1.962987        -1.227985
 C         3.029642         1.493590        -2.277618
 C         3.038244         0.168548        -1.422752
 O         3.800284        -1.001747        -1.731343
 C         1.646458         0.372430        -0.744881
 C         3.003626         0.713812        -0.009111
 O         3.644598         0.025541         1.082059
 C         2.791331         2.189617         0.050666
 H         0.170604         3.157828        -1.156173
 H         1.569971         3.734374        -2.192344
 H         0.528438         2.448178        -2.649435
 H         2.489816         1.260814        -3.201422
 H         4.002200         1.947583        -2.222210
 H         3.712076        -1.540865        -0.893823
 H         0.841259        -0.213212        -0.471821
 H         3.018894         0.092000         1.852848
 H         2.012828         2.259472         0.922077
 H         3.710698         2.771105         0.135858
