19
Iteration:  3563charge 0 multiplicity 1
 C         0.869831         2.974635        -1.793980
 C         1.943889         1.958258        -1.290082
 C         3.097897         1.359746        -2.242786
 C         3.209702         0.238336        -1.317444
 O         3.748732        -0.949141        -1.668852
 C         1.760833         0.332442        -0.790813
 C         3.002149         0.695056         0.083539
 O         3.503034        -0.083900         1.074280
 C         2.677878         2.221372        -0.029673
 H         0.056843         3.020212        -1.133295
 H         1.298847         4.001882        -1.774573
 H         0.513298         2.622506        -2.735411
 H         2.618754         1.188346        -3.185312
 H         3.910786         1.995098        -2.512073
 H         4.203303        -1.206903        -0.872776
 H         0.864368        -0.230609        -0.878843
 H         4.421411         0.114433         1.267335
 H         2.014964         2.697499         0.576999
 H         3.556815         2.888351        -0.046326
