19
Iteration:  1708charge 0 multiplicity 1
 C         0.878985         2.935455        -1.704691
 C         1.993983         1.950507        -1.239815
 C         2.960709         1.412795        -2.327893
 C         3.078080         0.170199        -1.475467
 O         3.882927        -0.948738        -1.700023
 C         1.729354         0.447351        -0.789417
 C         3.042249         0.689266        -0.048496
 O         3.482320        -0.042108         1.197997
 C         2.804408         2.198010         0.023920
 H         0.051342         3.143851        -0.996468
 H         1.378048         3.700557        -2.323753
 H         0.468243         2.193510        -2.494676
 H         2.590288         1.031921        -3.266668
 H         3.993508         1.924311        -2.371482
 H         4.787954        -0.782911        -1.292438
 H         0.772417        -0.039327        -0.301321
 H         2.675424        -0.453809         1.610268
 H         2.110381         2.480239         0.919435
 H         3.717133         2.939859        -0.093911
