19
Iteration:   245
 C         0.846434         2.866516        -1.717707
 C         2.001010         1.969440        -1.222497
 C         3.056764         1.405685        -2.311773
 C         3.111791         0.180900        -1.470978
 O         3.809392        -1.007978        -1.659192
 C         1.796981         0.400315        -0.875788
 C         2.945354         0.750150         0.042282
 O         3.564748         0.014463         1.072757
 C         2.765867         2.236793         0.107415
 H        -0.010272         2.982343        -1.006831
 H         1.219180         3.864939        -2.075879
 H         0.433484         2.366687        -2.615394
 H         2.470729         1.189816        -3.274224
 H         3.958197         2.087991        -2.461802
 H         4.339433        -1.083127        -0.870391
 H         0.925674        -0.215879        -0.711349
 H         2.900616        -0.537471         1.562554
 H         2.083531         2.580714         0.877658
 H         3.648878         2.870483        -0.039816
