19
Iteration:  3987
 C         0.872944         2.810613        -1.820254
 C         1.980436         1.946676        -1.228944
 C         3.026741         1.458518        -2.311111
 C         3.190204         0.272670        -1.363510
 O         3.748904        -1.025028        -1.712825
 C         1.828626         0.466735        -0.836870
 C         2.978965         0.737755         0.158361
 O         3.402336        -0.085917         1.135193
 C         2.809647         2.257845        -0.008413
 H         0.145031         2.957893        -1.046233
 H         1.236288         3.723861        -2.278795
 H         0.311463         2.254322        -2.578407
 H         2.632445         1.078929        -3.312595
 H         3.786773         2.224575        -2.545965
 H         4.364318        -1.323114        -1.024423
 H         1.093171        -0.359381        -0.819903
 H         4.126411         0.192398         1.763110
 H         2.115738         2.641779         0.831292
 H         3.749343         2.898908        -0.199740
