19
Iteration:  2434
 C         0.927599         2.910600        -1.829728
 C         1.985051         1.990028        -1.210957
 C         2.952787         1.477514        -2.287071
 C         3.108447         0.224831        -1.420614
 O         3.725847        -1.012533        -1.671337
 C         1.750969         0.364212        -0.838009
 C         2.977056         0.690290         0.051084
 O         3.626459         0.043757         1.143090
 C         2.795760         2.122081         0.072237
 H         0.100601         3.134535        -1.133718
 H         1.360530         3.817222        -2.101834
 H         0.560902         2.585338        -2.769739
 H         2.516901         1.253104        -3.269775
 H         3.931488         1.962240        -2.501641
 H         4.621639        -0.946037        -1.239425
 H         0.887937        -0.186336        -0.618398
 H         2.859495        -0.496883         1.439868
 H         2.085627         2.301959         0.869659
 H         3.707046         2.649025        -0.047127
