19
Iteration:  3617
 C         0.874508         2.907577        -1.724210
 C         1.923104         1.912090        -1.290040
 C         3.049814         1.342297        -2.364399
 C         3.171200         0.221433        -1.375822
 O         3.908497        -0.908293        -1.637327
 C         1.723250         0.405682        -0.806267
 C         3.024624         0.750540         0.069877
 O         3.342332        -0.070505         1.080631
 C         2.828738         2.235629         0.024111
 H         0.243303         3.067714        -0.889671
 H         1.410029         3.801809        -2.137517
 H         0.222957         2.488159        -2.478726
 H         2.481672         1.181887        -3.279087
 H         3.796105         2.104299        -2.448904
 H         3.609119        -1.643504        -1.124893
 H         0.984233        -0.330973        -0.561242
 H         4.222503         0.178868         1.352142
 H         2.326230         2.553116         0.881922
 H         3.784191         2.883197        -0.190580
