19
Iteration:  3569charge 0 multiplicity 1
 C         0.864813         2.975629        -1.780606
 C         1.905622         1.949935        -1.349337
 C         3.078739         1.373795        -2.243235
 C         3.179396         0.241610        -1.333478
 O         3.801677        -0.963756        -1.673036
 C         1.753247         0.402724        -0.798819
 C         2.964827         0.659207         0.100595
 O         3.503797        -0.086487         1.095498
 C         2.708500         2.235074         0.000094
 H        -0.040964         3.013506        -1.072250
 H         1.539009         3.854962        -1.730777
 H         0.420531         2.739806        -2.793314
 H         2.680597         0.937151        -3.223087
 H         4.073344         1.880614        -2.575419
 H         4.297522        -1.276035        -0.856751
 H         0.881639        -0.323100        -0.793284
 H         4.445970         0.204906         0.969033
 H         1.959066         2.752650         0.793109
 H         3.625569         2.886734        -0.001332
