19
Iteration:  3357charge 0 multiplicity 1
 C         0.854631         2.778014        -1.792953
 C         1.987068         1.954758        -1.326627
 C         3.160709         1.453978        -2.298325
 C         3.224908         0.285492        -1.325646
 O         3.723260        -0.913013        -1.707314
 C         1.825043         0.383979        -0.774442
 C         2.990701         0.664919         0.092917
 O         3.396574        -0.110007         1.070870
 C         2.756479         2.329526         0.041165
 H         0.243021         2.957889        -0.945647
 H         1.222070         3.782016        -2.135737
 H         0.098611         2.376808        -2.467154
 H         2.785729         0.980193        -3.154934
 H         4.019644         2.081521        -2.596722
 H         3.647690        -1.607082        -1.078666
 H         0.792852        -0.118720        -0.697474
 H         4.225461         0.078042         1.501167
 H         2.208056         2.493189         0.984100
 H         3.482068         3.064004        -0.006747
