19
Iteration:  3328charge 0 multiplicity 1
 C         0.867121         2.887755        -1.744255
 C         1.904846         1.962882        -1.224399
 C         3.078366         1.449976        -2.318534
 C         3.092525         0.184461        -1.435139
 O         3.926385        -0.956221        -1.698067
 C         1.762448         0.400438        -0.839819
 C         2.949131         0.650390         0.078793
 O         3.366118        -0.082937         1.187708
 C         2.821090         2.271286        -0.036886
 H         0.173232         3.295532        -0.885651
 H         1.272604         3.798729        -2.137048
 H         0.247101         2.484187        -2.576752
 H         2.664842         1.250538        -3.357738
 H         4.016768         2.008190        -2.415033
 H         4.218768        -1.403751        -0.865914
 H         0.839267        -0.142581        -0.733810
 H         4.358101        -0.054145         1.345261
 H         2.405757         2.525730         0.937104
 H         3.648867         3.099679        -0.285116
