19
Iteration:   708
 C         0.846824         2.777446        -1.623901
 C         1.969422         1.905275        -1.297829
 C         3.133174         1.330423        -2.353066
 C         3.130688         0.191666        -1.340245
 O         3.868202        -0.855103        -1.687039
 C         1.710483         0.491300        -0.857784
 C         3.031817         0.755766         0.046701
 O         3.472640        -0.058416         1.075933
 C         2.787358         2.290085        -0.014109
 H         0.208762         2.953066        -0.774985
 H         1.099227         3.711619        -2.022546
 H         0.129622         2.496677        -2.422468
 H         2.749744         0.798259        -3.287242
 H         4.157235         1.692627        -2.437923
 H         4.088140        -1.541940        -0.999829
 H         0.776521         0.059281        -0.667233
 H         2.736756        -0.338551         1.602517
 H         2.018408         2.648385         0.762029
 H         3.513979         3.165612        -0.081191
