19
Iteration:  3365
 C         0.861703         2.748544        -1.791033
 C         2.007786         1.958697        -1.201909
 C         3.162341         1.406636        -2.324924
 C         3.181877         0.263183        -1.374991
 O         3.729513        -0.923576        -1.713931
 C         1.797626         0.475560        -0.866038
 C         3.018089         0.789489         0.087688
 O         3.400394        -0.121572         1.112811
 C         2.752888         2.277989         0.073696
 H         0.240676         2.871969        -0.909275
 H         1.266201         3.738664        -2.176049
 H         0.339828         2.141355        -2.574537
 H         2.558947         1.083549        -3.281116
 H         4.118140         1.975266        -2.547897
 H         3.535747        -1.535328        -0.999991
 H         0.963232        -0.304256        -0.749255
 H         4.327115         0.134649         1.322704
 H         1.963452         2.344007         0.886881
 H         3.457273         3.161868         0.032068
