19
Iteration:  4323charge 0 multiplicity 1
 C         0.880383         2.849805        -1.883277
 C         1.919144         1.991610        -1.285713
 C         3.148877         1.415643        -2.170279
 C         3.177644         0.171825        -1.326455
 O         3.900446        -0.994457        -1.614393
 C         1.727688         0.456463        -0.861286
 C         2.956157         0.701384         0.028502
 O         3.541350        -0.065232         1.091862
 C         2.669981         2.247498         0.033155
 H         0.146891         2.993674        -1.071420
 H         1.029330         3.882978        -2.030444
 H         0.447145         2.376459        -2.766212
 H         2.655691         1.338908        -3.234604
 H         3.846333         2.241252        -2.152385
 H         3.749879        -1.213200        -2.548831
 H         0.887370        -0.144149        -0.640341
 H         3.016079         0.102273         1.872136
 H         1.976149         2.456712         0.891681
 H         3.668866         2.830899         0.244891
