19
Iteration:  1939charge 0 multiplicity 1
 C         0.850473         2.810010        -1.893762
 C         1.948372         2.001120        -1.226748
 C         3.115698         1.494409        -2.241986
 C         3.112222         0.167614        -1.369975
 O         3.717636        -1.024878        -1.704772
 C         1.765733         0.489661        -0.715848
 C         3.026615         0.702225         0.033424
 O         3.622200        -0.099687         0.991599
 C         2.727356         2.273577         0.111232
 H        -0.116722         2.720963        -1.358590
 H         0.965996         3.892127        -1.911664
 H         0.447465         2.660914        -2.923243
 H         2.893490         1.511827        -3.319817
 H         4.131305         2.002881        -1.991413
 H         4.419354        -1.125055        -0.988971
 H         0.945203        -0.104685        -0.365110
 H         2.961138        -0.216131         1.683773
 H         2.079409         2.423569         0.945800
 H         3.521990         2.885274        -0.106867
