19
Iteration:  4843charge 0 multiplicity 1
 C         0.811275         2.789194        -1.772034
 C         1.931638         1.929310        -1.351310
 C         3.169847         1.473671        -2.144939
 C         3.198108         0.186325        -1.427765
 O         3.786322        -1.058132        -1.694919
 C         1.797543         0.363945        -0.823154
 C         2.964107         0.758535         0.054494
 O         3.423054        -0.010911         1.147075
 C         2.815199         2.294931        -0.001814
 H         0.052778         2.749860        -0.914096
 H         1.038657         3.937801        -1.792175
 H         0.234689         2.543135        -2.688431
 H         2.883736         1.203652        -3.259390
 H         4.079013         2.173547        -1.952435
 H         4.391584        -0.948742        -2.475974
 H         0.823361        -0.233050        -0.644169
 H         3.317858         0.683114         1.853914
 H         2.132918         2.470022         0.873881
 H         3.681731         2.891524        -0.020922
