19
Iteration:  3133
 C         0.914051         2.877577        -1.639127
 C         2.015266         1.932781        -1.343839
 C         3.099870         1.358673        -2.274595
 C         3.087641         0.226823        -1.341545
 O         3.906108        -0.851460        -1.656520
 C         1.677200         0.477924        -0.763981
 C         2.871863         0.698955         0.052027
 O         3.492928        -0.157818         1.006609
 C         2.761330         2.209315        -0.113963
 H         0.207939         3.000589        -0.736694
 H         1.318398         3.869483        -1.871977
 H         0.421124         2.647081        -2.572687
 H         2.704664         0.815391        -3.165747
 H         3.910104         2.030756        -2.249994
 H         4.169090        -1.207095        -0.811036
 H         0.765314        -0.215610        -0.708863
 H         3.323959         0.302223         1.865968
 H         2.133310         2.822507         0.604152
 H         3.775977         2.622058        -0.247277
