19
Iteration:  3842
 C         0.880872         2.782726        -1.827211
 C         2.000622         1.955921        -1.256608
 C         3.091437         1.465940        -2.243770
 C         3.154640         0.245572        -1.418131
 O         3.736475        -1.000553        -1.761880
 C         1.804058         0.388460        -0.838687
 C         2.943868         0.736854         0.146760
 O         3.451543        -0.013815         1.144062
 C         2.751124         2.265342         0.049267
 H         0.090738         3.082721        -1.145278
 H         1.357663         3.666394        -2.098724
 H         0.442017         2.241246        -2.652742
 H         2.708620         1.339057        -3.217900
 H         4.059259         2.034502        -2.236562
 H         3.870692        -1.520055        -0.974872
 H         0.982710        -0.357943        -0.569199
 H         4.405261        -0.087117         1.289481
 H         2.072516         2.765926         0.818799
 H         3.713914         2.903175        -0.053209
