19
Iteration:  2356charge 0 multiplicity 1
 C         0.838562         2.863788        -1.718330
 C         2.010965         1.950727        -1.242914
 C         3.023427         1.443048        -2.328466
 C         3.112311         0.213899        -1.424728
 O         3.865840        -0.947200        -1.638740
 C         1.765315         0.489439        -0.903902
 C         2.963756         0.700435         0.059014
 O         3.510262        -0.077863         1.123982
 C         2.893545         2.198454        -0.000591
 H         0.111229         3.100915        -0.907542
 H         1.120616         3.814282        -2.154540
 H         0.125917         2.220868        -2.311260
 H         2.392413         1.065838        -3.123284
 H         3.919122         2.091618        -2.582723
 H         3.554928        -1.502526        -0.927696
 H         0.810702        -0.099098        -0.988396
 H         2.871588        -0.091152         1.826183
 H         2.207225         2.536996         0.896194
 H         3.827421         2.873818        -0.159012
