19
Iteration:  1693
 C         0.864542         2.849722        -1.721675
 C         1.990308         1.957669        -1.283694
 C         2.971673         1.354784        -2.401313
 C         3.119961         0.196049        -1.407458
 O         3.889617        -0.891377        -1.733539
 C         1.732778         0.457379        -0.833505
 C         2.961225         0.683926         0.102431
 O         3.449454         0.010788         1.194422
 C         2.915358         2.135773         0.051118
 H         0.394904         3.261243        -0.845524
 H         1.179649         3.815967        -2.108559
 H         0.171129         2.546732        -2.450801
 H         2.203556         1.115376        -3.204065
 H         3.807405         2.010358        -2.802771
 H         4.564612        -0.844008        -1.057851
 H         0.824147        -0.081957        -0.788719
 H         2.841133        -0.656855         1.477346
 H         2.349699         2.526551         0.847346
 H         3.812785         2.699879         0.103847
