19
Iteration:  3814charge 0 multiplicity 1
 C         0.769763         2.811352        -1.778904
 C         2.029262         2.006181        -1.312560
 C         3.069918         1.430483        -2.337578
 C         3.225506         0.254110        -1.418378
 O         3.808260        -1.011554        -1.705174
 C         1.806926         0.566581        -0.763259
 C         3.066481         0.689647         0.060323
 O         3.356002        -0.033747         1.176658
 C         2.753679         2.153973         0.025593
 H         0.161342         3.202442        -0.928986
 H         1.109799         3.829504        -2.231167
 H         0.241055         2.082541        -2.437788
 H         2.645322         1.118955        -3.361874
 H         3.989660         1.981810        -2.578804
 H         3.828816        -1.445636        -0.856111
 H         1.001750        -0.135080        -0.756801
 H         4.244112        -0.167191         1.474502
 H         2.068898         2.407896         0.820439
 H         3.658707         2.831535         0.224007
