19
Iteration:  1488charge 0 multiplicity 1
 C         0.836989         2.799995        -1.662881
 C         1.993684         1.948758        -1.325901
 C         3.015121         1.402233        -2.389777
 C         3.092262         0.168788        -1.440540
 O         3.922627        -0.958241        -1.595175
 C         1.815929         0.475825        -0.790563
 C         3.065463         0.744122        -0.014122
 O         3.335239        -0.046794         1.155721
 C         2.808529         2.315156         0.042701
 H         0.295127         2.987360        -0.763072
 H         1.222794         3.784594        -1.928388
 H         0.278366         2.300550        -2.470902
 H         2.493429         1.218282        -3.302085
 H         3.843687         2.047271        -2.683812
 H         3.568985        -1.576378        -2.225363
 H         0.887541         0.033961        -0.367460
 H         4.202571        -0.401923         1.294641
 H         2.122870         2.425001         0.891815
 H         3.663151         2.933461         0.179449
