19
Iteration:   734charge 0 multiplicity 1
 C         0.852047         2.851699        -1.788564
 C         1.967687         1.982370        -1.292998
 C         3.007056         1.496523        -2.344064
 C         3.218343         0.221953        -1.354073
 O         3.856955        -0.951957        -1.742798
 C         1.790886         0.351457        -0.741525
 C         2.922255         0.711409         0.134745
 O         3.508924        -0.064682         1.140774
 C         2.807197         2.236843        -0.019598
 H         0.013814         2.961034        -1.032537
 H         1.029405         3.919860        -2.260265
 H         0.285342         2.548068        -2.680336
 H         2.491543         1.175353        -3.252994
 H         3.992065         1.947873        -2.600295
 H         4.013215        -1.644391        -1.029086
 H         0.909223        -0.401157        -0.653185
 H         2.971592        -0.127499         1.921032
 H         2.222405         2.695510         0.747140
 H         3.680187         2.893002        -0.039510
