19
Iteration:  2648
 C         0.842399         2.800996        -1.622688
 C         2.005783         1.963999        -1.333141
 C         3.023341         1.432432        -2.358232
 C         3.162901         0.264086        -1.373379
 O         3.709537        -1.026765        -1.567749
 C         1.802981         0.456055        -0.862182
 C         2.988400         0.749149         0.081209
 O         3.467834        -0.067468         1.069865
 C         2.893387         2.235061        -0.059107
 H         0.166271         2.721758        -0.803489
 H         1.178564         3.822639        -1.552240
 H         0.419534         2.543735        -2.611310
 H         2.660754         1.214835        -3.376343
 H         3.968225         1.968893        -2.697519
 H         4.685090        -1.032556        -1.753096
 H         0.725066         0.117938        -0.723220
 H         2.773134        -0.081838         1.714193
 H         2.319527         2.528092         0.906377
 H         3.873139         2.805672        -0.189311
