19
Iteration:  3172
 C         0.889823         2.955922        -1.716920
 C         1.997868         1.990489        -1.289591
 C         2.974701         1.476489        -2.359327
 C         3.155345         0.145175        -1.480815
 O         3.856726        -0.990083        -1.676915
 C         1.838718         0.374874        -0.793660
 C         2.998061         0.702317         0.079564
 O         3.450530        -0.029907         1.115914
 C         2.746406         2.160010         0.057124
 H         0.093732         3.258189        -1.067590
 H         1.460005         3.825364        -2.093420
 H         0.350548         2.460137        -2.552587
 H         2.399997         1.332698        -3.281860
 H         3.859514         2.166904        -2.675418
 H         4.174659        -1.246160        -0.758354
 H         1.148860        -0.368389        -0.529599
 H         2.817768        -0.274851         1.787020
 H         2.204015         2.554306         0.934152
 H         3.607806         2.872425        -0.131162
