19
Iteration:  3730charge 0 multiplicity 1
 C         1.010425         2.916831        -1.746715
 C         1.969418         1.898993        -1.276801
 C         2.982220         1.392629        -2.340767
 C         3.195580         0.233962        -1.390411
 O         3.857481        -0.997752        -1.639811
 C         1.728163         0.435280        -0.757991
 C         2.971648         0.704485         0.048065
 O         3.453282        -0.066069         1.062019
 C         2.642574         2.278603         0.008691
 H        -0.022022         2.966883        -1.272169
 H         1.516618         3.893075        -1.739573
 H         0.560364         2.689293        -2.731727
 H         2.451074         0.848970        -3.152743
 H         3.757035         2.156523        -2.672051
 H         4.150612        -1.109930        -0.679590
 H         0.897413        -0.226421        -0.695802
 H         4.381199         0.154547         1.316865
 H         1.971636         2.276342         0.911702
 H         3.599546         2.965667         0.044452
