19
Iteration:  1584charge 0 multiplicity 1
 C         0.846274         2.917011        -1.903834
 C         1.902963         1.924356        -1.260336
 C         3.081522         1.539975        -2.210716
 C         3.143354         0.267275        -1.416863
 O         3.709450        -1.017583        -1.688087
 C         1.785253         0.389721        -0.693340
 C         3.036951         0.681307         0.039213
 O         3.607079        -0.170666         1.099742
 C         2.671781         2.242484         0.005199
 H         0.015723         3.106718        -1.197626
 H         1.440045         3.871818        -1.973899
 H         0.460714         2.605041        -2.876729
 H         2.848163         1.260367        -3.254874
 H         3.944920         2.237298        -2.222551
 H         4.148239        -1.262140        -0.838007
 H         0.948652        -0.293298        -0.553139
 H         4.200474         0.395086         1.674593
 H         2.012037         2.537355         0.851551
 H         3.533509         2.924164        -0.294175
