19
Iteration:  1135charge 0 multiplicity 1
 C         0.800321         2.821499        -1.820807
 C         1.928803         1.886482        -1.260867
 C         3.091262         1.552569        -2.254161
 C         3.215926         0.177434        -1.393953
 O         3.732269        -1.059219        -1.695292
 C         1.761328         0.423034        -0.772784
 C         2.996498         0.731063         0.041956
 O         3.564663         0.123303         1.132754
 C         2.764206         2.200237         0.015142
 H        -0.137727         2.805972        -1.198288
 H         1.257963         3.819831        -1.957615
 H         0.601756         2.356786        -2.783139
 H         2.755503         1.547823        -3.359467
 H         3.905866         2.215784        -2.417932
 H         4.402612        -1.382418        -1.020304
 H         0.959132        -0.427683        -0.655252
 H         2.996546        -0.700430         1.221240
 H         2.245576         2.344031         1.080500
 H         3.800905         2.820789         0.052890
