19
Iteration:  3206
 C         0.832942         2.876103        -1.775248
 C         1.913894         1.943923        -1.298536
 C         3.168081         1.434071        -2.292952
 C         3.154350         0.239283        -1.316707
 O         3.730618        -0.990018        -1.705593
 C         1.813986         0.488090        -0.806717
 C         2.951916         0.737488         0.122237
 O         3.577547        -0.073482         1.062302
 C         2.725149         2.207398         0.031551
 H         0.203093         3.209081        -0.925367
 H         1.254191         3.789859        -2.204391
 H         0.322726         2.446181        -2.636838
 H         2.670696         1.204154        -3.251613
 H         4.168791         1.988273        -2.398872
 H         4.337519        -1.376347        -1.062424
 H         1.001738        -0.278946        -0.755117
 H         2.983829        -0.645395         1.541867
 H         2.115136         2.540433         0.856968
 H         3.528601         2.951202        -0.219811
