19
Iteration:  2368
 C         0.779135         2.823561        -1.695850
 C         2.012164         2.033146        -1.321631
 C         3.000890         1.490817        -2.378157
 C         3.134441         0.180467        -1.462948
 O         3.876831        -1.036866        -1.609743
 C         1.759762         0.499752        -0.795059
 C         3.014432         0.694236         0.047718
 O         3.500248        -0.075537         1.060668
 C         2.817636         2.194045         0.077738
 H         0.326125         3.385874        -0.849923
 H         1.252953         3.581766        -2.360854
 H         0.187911         2.384475        -2.524633
 H         2.645482         1.573109        -3.399138
 H         3.953044         2.086981        -2.526044
 H         3.799902        -1.608117        -0.814150
 H         0.823464        -0.087871        -0.796430
 H         2.957043         0.090332         1.861725
 H         2.151487         2.587035         0.976593
 H         3.893793         2.734250         0.167446
