19
Iteration:  4051charge 0 multiplicity 1
 C         0.934073         2.840442        -1.762097
 C         1.958833         1.964222        -1.260017
 C         3.099496         1.390981        -2.354527
 C         3.161313         0.230695        -1.413907
 O         3.813366        -1.030712        -1.585247
 C         1.738520         0.407877        -0.880231
 C         2.850025         0.734656         0.147429
 O         3.485964         0.078837         1.164437
 C         2.726268         2.151692         0.028069
 H         0.072134         2.953146        -1.073048
 H         1.382593         3.854979        -1.829123
 H         0.421049         2.594117        -2.720878
 H         2.735500         1.186798        -3.341039
 H         3.954456         2.061355        -2.315901
 H         4.524975        -0.573056        -2.118588
 H         0.843943        -0.288245        -0.711121
 H         4.155804        -0.488289         0.645262
 H         2.052458         2.587784         0.787405
 H         3.677410         2.620248        -0.016529
