19
Iteration:    20charge 0 multiplicity 1
 C         0.898823         2.821083        -1.611078
 C         2.008147         1.965889        -1.225408
 C         3.019170         1.526756        -2.405647
 C         3.198527         0.204747        -1.572786
 O         3.825232        -1.184030        -1.549746
 C         1.838851         0.332552        -0.886634
 C         2.917153         0.774007         0.045232
 O         3.417111         0.115396         1.129861
 C         2.749253         2.248047         0.093163
 H         0.155995         3.050545        -0.758332
 H         1.256780         3.796457        -2.051684
 H         0.276726         2.401480        -2.472177
 H         2.363307         1.461314        -3.285355
 H         3.914080         2.179709        -2.760601
 H         4.717027        -0.956681        -1.726729
 H         0.959107        -0.201903        -0.898603
 H         3.414552        -0.848679         0.962115
 H         2.167563         2.774412         1.014752
 H         3.576558         2.888151         0.077224
