19
Iteration:  4303
 C         0.819759         2.853394        -1.807187
 C         1.937130         1.893393        -1.327129
 C         3.136428         1.506744        -2.313269
 C         3.198506         0.302949        -1.429047
 O         3.860698        -0.930227        -1.513659
 C         1.775269         0.342342        -0.826615
 C         2.948044         0.675685         0.042243
 O         3.524076        -0.046461         1.139460
 C         2.758375         2.188676         0.061911
 H         0.083748         3.332543        -1.178065
 H         1.383670         3.733782        -2.118944
 H         0.378458         2.384664        -2.723724
 H         2.749630         1.486978        -3.309481
 H         4.132358         1.918282        -2.133656
 H         3.360030        -1.307497        -2.215218
 H         0.820441        -0.202693        -0.837612
 H         2.747380        -0.411023         1.561765
 H         2.021463         2.463237         0.875694
 H         3.535881         2.996600        -0.117141
