19
Iteration:  3032
 C         0.897908         2.866658        -1.783837
 C         1.947838         1.905120        -1.243613
 C         3.057839         1.508818        -2.241930
 C         3.147228         0.236294        -1.437739
 O         3.708511        -1.046520        -1.744792
 C         1.728061         0.455375        -0.818163
 C         3.083388         0.663239        -0.008344
 O         3.471395         0.118913         1.229123
 C         2.843150         2.105659         0.045032
 H         0.078542         3.094681        -0.992791
 H         1.359766         3.801549        -2.058413
 H         0.198171         2.397922        -2.513997
 H         2.674852         1.246330        -3.309962
 H         4.071338         1.946106        -2.445678
 H         4.663653        -0.918594        -1.733250
 H         0.851137        -0.187237        -0.699569
 H         3.008060        -0.692645         1.437097
 H         2.235649         2.403768         0.940149
 H         3.752090         2.786306         0.108900
