19
Iteration:  3332charge 0 multiplicity 1
 C         0.858855         2.893098        -1.757411
 C         1.876679         1.967405        -1.227578
 C         3.084196         1.449744        -2.313411
 C         3.112890         0.196848        -1.427135
 O         3.913317        -0.971156        -1.704362
 C         1.768380         0.446141        -0.846600
 C         2.937884         0.672920         0.137433
 O         3.386217        -0.106556         1.175794
 C         2.838408         2.261528        -0.073579
 H         0.172865         3.162183        -0.969929
 H         1.333953         3.832043        -2.129922
 H         0.149462         2.421868        -2.455640
 H         2.739326         1.294923        -3.402150
 H         4.030768         2.054655        -2.343983
 H         4.159171        -1.489008        -0.934633
 H         0.978782        -0.270148        -0.669808
 H         4.292115        -0.061434         1.454730
 H         2.303965         2.550256         0.859878
 H         3.552277         3.019561        -0.236692
