19
Iteration:  4918
 C         0.825135         2.899688        -1.812689
 C         1.889074         1.909316        -1.336879
 C         3.044814         1.390985        -2.275097
 C         3.091345         0.186234        -1.387096
 O         3.922273        -0.888557        -1.578097
 C         1.730002         0.453228        -0.809696
 C         3.019324         0.712106         0.040638
 O         3.575348        -0.101231         1.094552
 C         2.777366         2.235272         0.004695
 H         0.086177         3.274667        -1.108533
 H         1.534071         3.729947        -2.165567
 H         0.097375         2.799046        -2.601958
 H         2.536594         1.380840        -3.253828
 H         3.963271         1.924247        -2.079587
 H         4.112653        -1.233758        -0.714325
 H         0.936921        -0.304813        -0.561878
 H         2.862682        -0.738210         1.215155
 H         2.046280         2.489143         0.811630
 H         3.586707         2.999921        -0.275511
