19
Iteration:   352charge 0 multiplicity 1
 C         0.830607         2.876727        -1.744499
 C         2.006552         1.968428        -1.382856
 C         2.933457         1.377184        -2.357202
 C         3.186975         0.238832        -1.373943
 O         3.878868        -0.918244        -1.741048
 C         1.743029         0.443067        -0.797396
 C         2.902223         0.699217         0.172468
 O         3.525138        -0.002719         1.129178
 C         2.850285         2.160473         0.067214
 H         0.272914         2.953424        -0.835938
 H         1.249798         3.872910        -1.913881
 H         0.329058         2.409707        -2.569223
 H         2.622722         1.037588        -3.303582
 H         3.721973         1.998798        -2.552088
 H         4.336290        -1.311497        -1.033910
 H         0.862120        -0.204391        -0.904710
 H         2.957400        -0.729485         1.451806
 H         2.232553         2.708502         0.866703
 H         3.757449         2.765893         0.191876
