19
Iteration:  2176
 C         0.822227         3.026950        -1.687621
 C         1.948931         1.900676        -1.291340
 C         3.034477         1.290032        -2.281917
 C         3.189468         0.213331        -1.343817
 O         3.889846        -0.917181        -1.694573
 C         1.749568         0.436489        -0.777809
 C         3.021702         0.730477         0.091742
 O         3.440662        -0.185461         1.034634
 C         2.809667         2.304208        -0.062517
 H         0.167099         3.130135        -0.825924
 H         1.255928         3.959539        -2.065506
 H         0.277191         2.637240        -2.576277
 H         2.533867         0.858622        -3.197646
 H         3.836859         2.003276        -2.596631
 H         4.516470        -1.087112        -0.992812
 H         0.853632        -0.282032        -0.488387
 H         2.843815        -0.150965         1.838133
 H         2.055017         2.799304         0.689111
 H         3.704443         2.870068        -0.373924
