19
Iteration:   995
 C         0.850683         2.747765        -1.837573
 C         1.936843         1.926149        -1.265293
 C         3.029001         1.569216        -2.245249
 C         3.137345         0.240642        -1.450676
 O         3.748620        -1.058971        -1.725274
 C         1.832148         0.460318        -0.747951
 C         3.040369         0.719749         0.047821
 O         3.499463         0.020962         1.226675
 C         2.846631         2.236261        -0.026484
 H        -0.013150         2.606064        -1.142096
 H         1.040781         3.851527        -1.985292
 H         0.458594         2.323152        -2.736983
 H         2.809210         1.315146        -3.355800
 H         3.864390         2.286867        -2.496447
 H         4.451024        -1.212349        -1.031253
 H         1.028872        -0.103846        -0.570928
 H         2.821436        -0.659925         1.505080
 H         2.067518         2.455793         0.704445
 H         3.668389         2.874294         0.009469
