19
Iteration:  3127
 C         0.909068         2.897800        -1.652483
 C         1.925655         1.929230        -1.295503
 C         3.098726         1.381366        -2.316511
 C         3.096700         0.217362        -1.381389
 O         3.894312        -0.872443        -1.630032
 C         1.714622         0.389501        -0.762847
 C         2.859348         0.737973         0.058675
 O         3.492872        -0.170178         1.001730
 C         2.821541         2.243259        -0.083442
 H         0.160547         2.967456        -0.911698
 H         1.407672         3.890357        -1.833535
 H         0.314622         2.589756        -2.549861
 H         2.857370         1.041898        -3.333357
 H         4.105925         1.955621        -2.275731
 H         4.071188        -1.246282        -0.719759
 H         0.772936        -0.106008        -0.719066
 H         3.309055         0.322166         1.794352
 H         2.130207         2.880601         0.525844
 H         3.807108         2.748978        -0.113325
