19
Iteration:  2482
 C         0.818543         2.928343        -1.617495
 C         1.996902         1.925641        -1.408573
 C         3.080571         1.348122        -2.389128
 C         3.161425         0.206554        -1.357631
 O         3.724386        -0.957520        -1.705083
 C         1.768308         0.417481        -0.814448
 C         2.959362         0.730313         0.107109
 O         3.519252        -0.041114         1.201444
 C         2.880308         2.303629        -0.020804
 H         0.126376         2.674823        -0.822773
 H         0.950090         4.073908        -1.615952
 H         0.380865         2.793526        -2.586389
 H         2.806706         0.982751        -3.425632
 H         3.842298         2.042039        -2.600414
 H         4.392350        -1.187146        -1.075805
 H         0.894084        -0.342081        -0.895746
 H         3.007574        -0.843307         1.366025
 H         2.090017         2.635192         0.680303
 H         3.867835         2.758845        -0.334591
