19
Iteration:  4586
 C         0.872025         2.790392        -1.762961
 C         1.955991         1.932998        -1.275482
 C         3.115109         1.424135        -2.373174
 C         3.141345         0.258533        -1.416199
 O         3.900932        -0.841891        -1.622626
 C         1.748874         0.503625        -0.864805
 C         2.905646         0.658319         0.136602
 O         3.399765        -0.169594         1.105403
 C         2.800141         2.205575        -0.016327
 H         0.325859         3.034758        -0.767776
 H         1.304760         3.746270        -2.104821
 H         0.189999         2.246967        -2.494270
 H         2.665016         1.157648        -3.335663
 H         4.087765         2.072466        -2.437619
 H         4.384681        -1.076496        -0.812325
 H         0.846207        -0.052460        -0.834996
 H         3.325348         0.239342         2.021533
 H         2.115158         2.667450         0.646940
 H         3.712524         2.787422        -0.125839
