19
Iteration:   994charge 0 multiplicity 1
 C         0.848515         2.755928        -1.833801
 C         1.933500         1.926342        -1.269034
 C         3.030686         1.570779        -2.245497
 C         3.145027         0.228680        -1.455841
 O         3.740802        -1.053550        -1.716099
 C         1.822371         0.462294        -0.754051
 C         3.038660         0.711224         0.036347
 O         3.506333         0.020533         1.229900
 C         2.853479         2.238839        -0.024144
 H        -0.014465         2.579636        -1.158354
 H         1.045185         3.836485        -2.004427
 H         0.495259         2.284914        -2.750631
 H         2.801711         1.367919        -3.347725
 H         3.843481         2.262586        -2.453058
 H         4.483009        -1.162138        -1.011865
 H         1.034716        -0.114682        -0.560608
 H         2.818709        -0.665884         1.499469
 H         2.088336         2.447344         0.727720
 H         3.625499         2.892945         0.008491
