19
Iteration:   718charge 0 multiplicity 1
 C         0.830824         2.813089        -1.696096
 C         2.010387         1.913800        -1.379757
 C         3.096647         1.289550        -2.297879
 C         3.148368         0.239456        -1.318355
 O         3.879788        -0.875714        -1.761153
 C         1.735793         0.526058        -0.785493
 C         2.980781         0.758345         0.105466
 O         3.507189        -0.076927         1.106258
 C         2.753840         2.253936        -0.008239
 H         0.288576         2.880875        -0.778026
 H         1.190973         3.754229        -1.911843
 H         0.177070         2.322696        -2.458129
 H         2.765848         0.892023        -3.295521
 H         3.832677         2.042186        -2.541059
 H         3.834780        -1.426717        -0.963178
 H         0.889721        -0.049012        -0.674432
 H         2.748707        -0.325766         1.667130
 H         1.948269         2.673926         0.699406
 H         3.702498         2.878727        -0.091674
