19
Iteration:  4878charge 0 multiplicity 1
 C         0.802752         2.712184        -1.733474
 C         2.018487         1.971014        -1.288663
 C         3.124056         1.399928        -2.339276
 C         3.233250         0.266115        -1.406971
 O         3.723879        -0.966545        -1.722753
 C         1.831683         0.419755        -0.877219
 C         2.959252         0.749611         0.049915
 O         3.443715        -0.018868         1.199374
 C         2.794876         2.280697         0.077040
 H         0.144599         2.782517        -0.785767
 H         1.142455         3.744539        -1.970558
 H         0.209262         2.289302        -2.567387
 H         2.621042         1.093432        -3.326956
 H         4.070197         1.936543        -2.696584
 H         4.680779        -1.102278        -1.438775
 H         0.963050        -0.175609        -1.079913
 H         2.862677         0.053176         2.008148
 H         2.034404         2.638730         0.807183
 H         3.657855         2.842592         0.263612
