19
Iteration:   772
 C         0.911692         2.899119        -1.835012
 C         1.971972         1.916643        -1.269275
 C         3.066748         1.477415        -2.291604
 C         3.122808         0.202509        -1.372785
 O         3.802825        -0.985564        -1.677183
 C         1.713712         0.379461        -0.737118
 C         2.965378         0.683753         0.071826
 O         3.610928         0.005606         1.026264
 C         2.679758         2.159332         0.044988
 H         0.171244         3.029503        -1.086676
 H         1.406569         3.793473        -2.025430
 H         0.506514         2.450726        -2.750037
 H         2.657206         1.177461        -3.289222
 H         3.888244         2.205257        -2.256539
 H         4.569579        -1.016895        -1.109683
 H         0.830679        -0.284463        -0.476477
 H         3.142956         0.214393         1.873600
 H         1.845600         2.451827         0.764421
 H         3.419933         2.961149         0.048413
