19
Iteration:  3907
 C         0.911415         2.868301        -1.750723
 C         1.964387         1.942052        -1.313483
 C         2.939154         1.414407        -2.400154
 C         3.218498         0.254520        -1.439279
 O         3.854906        -0.959800        -1.575578
 C         1.773258         0.379238        -0.717375
 C         2.997074         0.752833         0.042084
 O         3.401024        -0.084096         1.102358
 C         2.729952         2.227110        -0.026437
 H         0.283806         3.200699        -0.910073
 H         1.553005         3.736898        -1.699414
 H         0.433776         2.813125        -2.734371
 H         2.552081         1.132087        -3.313647
 H         3.846749         2.046097        -2.575919
 H         3.979879        -1.116558        -0.594185
 H         1.017233        -0.428822        -0.776587
 H         4.429262        -0.119956         1.100278
 H         1.955936         2.598760         0.667561
 H         3.680457         2.702338         0.286538
