19
Iteration:  3638charge 0 multiplicity 1
 C         0.787267         2.831994        -1.741235
 C         1.982088         2.006378        -1.343623
 C         3.068712         1.435298        -2.296980
 C         3.214845         0.200709        -1.398338
 O         3.884431        -0.995032        -1.737478
 C         1.850463         0.488687        -0.762749
 C         2.976741         0.790736         0.161106
 O         3.338203        -0.204172         1.194908
 C         2.803290         2.296597        -0.077996
 H         0.216105         3.176907        -0.906232
 H         1.305532         3.710768        -2.264386
 H         0.093091         2.339795        -2.408095
 H         2.512668         1.030256        -3.184799
 H         3.789260         2.182047        -2.609961
 H         3.534614        -1.615523        -1.039111
 H         0.948131        -0.058455        -0.545325
 H         4.307310         0.003123         1.356366
 H         2.111468         2.655166         0.661538
 H         3.659076         3.080352        -0.243440
