19
Iteration:  4872
 C         0.821009         2.723979        -1.697830
 C         1.986325         1.964749        -1.320210
 C         3.206967         1.394998        -2.367479
 C         3.201824         0.260873        -1.418146
 O         3.721473        -0.961906        -1.725557
 C         1.813497         0.437134        -0.850286
 C         2.971310         0.741908         0.063611
 O         3.448560        -0.043910         1.225899
 C         2.772705         2.275636         0.071022
 H         0.080814         2.654744        -0.931906
 H         1.012606         3.748828        -1.994886
 H         0.193736         2.257625        -2.475767
 H         2.744586         0.949375        -3.214585
 H         4.058580         1.994762        -2.601921
 H         4.670713        -0.950626        -1.683840
 H         0.839395        -0.008196        -1.085922
 H         2.925655         0.274081         1.954667
 H         2.002908         2.521878         0.805929
 H         3.708022         2.984670         0.072665
