19
Iteration:  2840charge 0 multiplicity 1
 C         0.865881         2.893929        -1.607567
 C         2.001976         1.912111        -1.325363
 C         3.052953         1.326499        -2.346205
 C         3.191879         0.245249        -1.342549
 O         3.741420        -1.069490        -1.737514
 C         1.798548         0.501668        -0.831383
 C         3.003495         0.771575         0.097760
 O         3.450512        -0.030245         1.192435
 C         2.794364         2.290253        -0.059101
 H         0.145137         2.958938        -0.758469
 H         1.213553         3.955957        -1.843786
 H         0.323151         2.448550        -2.426544
 H         2.590551         1.196458        -3.298113
 H         3.849520         2.028534        -2.628096
 H         4.707364        -0.980129        -1.656089
 H         0.905717        -0.230410        -0.713364
 H         2.918285        -0.829767         1.041398
 H         2.175503         2.822638         0.697855
 H         3.829708         2.854979        -0.099467
