19
Iteration:  1387
 C         0.879798         2.864800        -1.740733
 C         1.970923         1.955077        -1.293850
 C         2.980443         1.380849        -2.434937
 C         3.235362         0.320405        -1.357974
 O         3.744312        -0.965793        -1.575949
 C         1.728712         0.416530        -0.830619
 C         2.956563         0.733064         0.103983
 O         3.585265        -0.068246         1.155204
 C         2.750860         2.244488         0.031420
 H         0.183119         3.002678        -0.852275
 H         1.403947         3.766693        -2.136755
 H         0.321786         2.432728        -2.555352
 H         2.254017         1.059706        -3.178502
 H         3.890818         1.944964        -2.766335
 H         4.710520        -1.145402        -1.321638
 H         0.935633        -0.306118        -1.046569
 H         3.805387        -0.963127         0.756636
 H         2.035757         2.587667         0.788219
 H         3.392513         3.113821        -0.055166
