19
Iteration:   849charge 0 multiplicity 1
 C         0.808000         2.805626        -1.732223
 C         1.933042         1.940389        -1.263994
 C         3.018749         1.465742        -2.292192
 C         3.194887         0.193699        -1.421859
 O         3.863415        -1.047378        -1.717841
 C         1.827702         0.492809        -0.818804
 C         3.031070         0.776754         0.068608
 O         3.454191        -0.056993         1.131697
 C         2.810273         2.319500        -0.000273
 H         0.012846         2.839577        -1.002259
 H         1.212513         3.709951        -2.068894
 H         0.411698         2.296384        -2.671040
 H         2.562222         1.099908        -3.256689
 H         3.956254         2.004687        -2.440105
 H         4.144833        -1.507071        -0.847759
 H         0.808248        -0.174657        -0.663640
 H         2.652020        -0.201842         1.618477
 H         2.260514         2.682321         0.877257
 H         3.659754         2.915756        -0.026127
