19
Iteration:   209
 C         0.817982         2.905622        -1.724935
 C         1.931047         1.864777        -1.323120
 C         3.047463         1.370704        -2.322251
 C         3.223539         0.275405        -1.328520
 O         3.800208        -0.849244        -1.740865
 C         1.805890         0.425954        -0.706333
 C         3.026122         0.743726         0.128852
 O         3.484412        -0.124234         1.075162
 C         2.799743         2.225238        -0.060272
 H        -0.053422         3.096948        -1.055506
 H         1.221538         3.965307        -1.987417
 H         0.424632         2.467306        -2.692779
 H         2.775012         0.865349        -3.315511
 H         3.947662         2.008763        -2.529065
 H         4.162424        -1.303238        -0.994495
 H         0.948273        -0.415144        -0.256663
 H         2.766666        -0.448157         1.709787
 H         2.050187         2.707634         0.652930
 H         3.627136         2.824280        -0.228655
