19
Iteration:  1491
 C         0.843784         2.805691        -1.648463
 C         1.977835         1.966132        -1.328855
 C         3.019793         1.409529        -2.362092
 C         3.096995         0.165375        -1.436631
 O         3.945883        -0.960835        -1.598079
 C         1.805751         0.450857        -0.758188
 C         3.055563         0.753350        -0.020259
 O         3.309869        -0.042475         1.139109
 C         2.833399         2.300912         0.028918
 H         0.227179         2.995276        -0.747782
 H         1.232735         3.768964        -1.974231
 H         0.222082         2.314088        -2.456486
 H         2.541115         1.187632        -3.453334
 H         3.839085         2.152449        -2.693636
 H         3.448721        -1.600331        -2.164904
 H         1.002863        -0.033607        -0.367314
 H         4.229398        -0.363240         1.252431
 H         2.050782         2.467289         0.789426
 H         3.756831         2.872412         0.088922
