19
Iteration:  2235charge 0 multiplicity 1
 C         0.852922         2.853427        -1.772994
 C         1.948964         1.954644        -1.251884
 C         3.207690         1.450033        -2.266391
 C         3.065397         0.173691        -1.470006
 O         3.767542        -1.063011        -1.689974
 C         1.716959         0.496763        -0.751029
 C         3.002876         0.740734         0.019453
 O         3.573130        -0.024432         1.002303
 C         2.768947         2.223740         0.106549
 H         0.047724         3.152172        -1.058271
 H         1.157784         3.810770        -2.122341
 H         0.109362         2.213000        -2.328708
 H         2.852888         1.349330        -3.256024
 H         4.116593         2.047137        -2.156391
 H         4.204536        -1.128632        -0.776654
 H         1.021101        -0.254028        -0.782631
 H         2.937364        -0.216768         1.730162
 H         2.051126         2.549223         0.908665
 H         3.530894         3.083416         0.086033
