19
Iteration:  1812
 C         0.883071         2.920188        -1.776379
 C         1.948935         1.863473        -1.336609
 C         3.031031         1.416190        -2.320828
 C         3.139197         0.234085        -1.293647
 O         3.814878        -0.906454        -1.689283
 C         1.754092         0.456420        -0.729855
 C         2.984854         0.770292         0.121816
 O         3.566740        -0.189318         1.055673
 C         2.787217         2.248729        -0.066836
 H         0.108396         3.049798        -0.967567
 H         1.218586         3.987865        -1.750659
 H         0.361083         2.704777        -2.721265
 H         2.838884         1.186486        -3.394840
 H         3.802770         2.138550        -2.281083
 H         4.042084        -1.422493        -0.886403
 H         0.872637        -0.288956        -0.713702
 H         2.862275        -0.436281         1.742017
 H         2.045111         2.646417         0.659178
 H         3.648922         2.976893        -0.108890
