19
Iteration:  1149charge 0 multiplicity 1
 C         0.818535         2.740967        -1.778797
 C         1.941986         1.912724        -1.300736
 C         3.099759         1.512490        -2.269420
 C         3.146942         0.243558        -1.446564
 O         3.720446        -1.010376        -1.764179
 C         1.793858         0.380637        -0.849210
 C         2.993573         0.696127         0.083461
 O         3.531283         0.121812         1.295400
 C         2.849873         2.190342        -0.023207
 H        -0.005791         2.726403        -1.032398
 H         1.072425         3.849652        -1.904115
 H         0.362810         2.479731        -2.723153
 H         2.757655         1.311707        -3.321658
 H         3.932569         2.131960        -2.076313
 H         4.333645        -1.177347        -1.062506
 H         0.819464        -0.143556        -0.771380
 H         3.232462        -0.769506         1.441714
 H         2.201195         2.734434         0.808247
 H         3.772269         2.881356        -0.227734
