19
Iteration:   699charge 0 multiplicity 1
 C         0.776246         2.830546        -1.624446
 C         1.999836         1.966069        -1.299346
 C         3.133523         1.370356        -2.341690
 C         3.124833         0.195741        -1.404418
 O         3.891650        -0.933481        -1.631256
 C         1.742057         0.381440        -0.842211
 C         2.994281         0.774605         0.005258
 O         3.452803        -0.048208         1.055487
 C         2.789389         2.306811        -0.034515
 H         0.203864         3.047960        -0.692419
 H         1.286868         3.818963        -1.897561
 H         0.273010         2.189747        -2.356783
 H         2.548049         1.264760        -3.305162
 H         4.176398         1.741400        -2.431889
 H         4.211863        -1.414432        -0.810049
 H         0.734972        -0.072869        -0.542575
 H         2.719817        -0.214304         1.633629
 H         2.184265         2.389578         0.837097
 H         3.673020         2.980053        -0.118942
