19
Iteration:   589
 C         0.869135         2.815341        -1.811944
 C         1.886539         1.881518        -1.332123
 C         3.058773         1.514630        -2.297012
 C         3.263396         0.321809        -1.340365
 O         3.734003        -0.933204        -1.765531
 C         1.780464         0.435896        -0.776381
 C         2.944626         0.644394         0.113177
 O         3.596355        -0.014970         1.133498
 C         2.781816         2.154802         0.069274
 H         0.017609         3.000872        -1.110958
 H         1.248293         3.871730        -2.044698
 H         0.378197         2.419035        -2.756421
 H         2.716590         0.997731        -3.153583
 H         3.895857         2.030987        -2.500740
 H         3.804622        -1.383552        -0.851584
 H         1.049932        -0.299088        -0.825616
 H         2.939064        -0.107016         1.876137
 H         2.165084         2.674997         0.718911
 H         3.727654         2.674518        -0.120994
