19
Iteration:   624
 C         0.886632         2.881064        -1.812524
 C         1.938165         1.917298        -1.221480
 C         3.104309         1.416691        -2.190464
 C         3.105486         0.158445        -1.435229
 O         3.819294        -1.042998        -1.736683
 C         1.727942         0.475788        -0.784451
 C         2.987488         0.702885         0.019817
 O         3.629204         0.012173         1.042861
 C         2.614862         2.237577         0.095927
 H         0.060615         2.943456        -1.064754
 H         1.573358         3.829256        -2.009595
 H         0.576874         2.455275        -2.786833
 H         2.812319         1.196558        -3.195234
 H         3.863546         2.198301        -2.403568
 H         4.634347        -1.206333        -1.172442
 H         0.851791         0.055192        -0.371925
 H         3.060761        -0.102992         1.858416
 H         1.862612         2.551707         0.787309
 H         3.391351         3.017232         0.010176
