19
Iteration:   349charge 0 multiplicity 1
 C         0.860320         2.869902        -1.751037
 C         2.011687         1.983926        -1.358390
 C         2.922686         1.361232        -2.360522
 C         3.168050         0.233596        -1.381749
 O         3.888213        -0.900884        -1.751544
 C         1.753445         0.470327        -0.798020
 C         2.886933         0.714985         0.165585
 O         3.538260        -0.011224         1.128915
 C         2.807220         2.158197         0.068512
 H         0.280846         2.885372        -0.861125
 H         1.208632         3.867758        -1.934687
 H         0.388377         2.331540        -2.575823
 H         2.511927         0.904097        -3.296463
 H         3.868773         1.991455        -2.730686
 H         4.292522        -1.352773        -0.949738
 H         0.750077        -0.262892        -0.965137
 H         3.027719        -0.753202         1.590104
 H         2.276889         2.654693         0.985665
 H         3.889728         2.758349         0.298646
