19
Iteration:  4222
 C         0.930106         2.825503        -1.750093
 C         1.919910         1.883977        -1.281027
 C         3.098465         1.457650        -2.246441
 C         3.160993         0.234946        -1.393200
 O         3.899489        -0.945381        -1.574082
 C         1.774305         0.451305        -0.845560
 C         2.906876         0.707282         0.069058
 O         3.320945        -0.051161         1.137056
 C         2.809290         2.216760         0.021314
 H         0.085577         2.844778        -1.062432
 H         1.312862         3.779643        -2.000399
 H         0.500072         2.523272        -2.663834
 H         2.699685         1.038660        -3.194579
 H         3.800095         2.143934        -2.573072
 H         3.874179        -1.303354        -2.470019
 H         0.914031        -0.281688        -0.766910
 H         4.285919         0.164397         1.178521
 H         2.357905         2.878441         0.750136
 H         3.676394         2.752228        -0.459743
