19
Iteration:   146
 C         0.826822         2.921697        -1.687329
 C         1.882866         1.858818        -1.340092
 C         3.113544         1.417060        -2.207726
 C         3.109372         0.239232        -1.327898
 O         3.799256        -0.967633        -1.620887
 C         1.759457         0.353379        -0.853992
 C         2.990230         0.769009         0.059879
 O         3.584245        -0.107402         0.969824
 C         2.744676         2.253130        -0.032540
 H         0.221869         3.124169        -0.796088
 H         1.256149         3.884893        -2.065150
 H         0.101771         2.530911        -2.402839
 H         2.937966         1.191647        -3.303201
 H         4.013562         2.066455        -2.247135
 H         4.381042        -1.082526        -0.886826
 H         0.926798        -0.407319        -1.102527
 H         3.501615         0.222417         1.920455
 H         2.125881         2.768775         0.677972
 H         3.512844         3.070939        -0.091462
