19
Iteration:  2222charge 0 multiplicity 1
 C         0.856904         2.797938        -1.756630
 C         2.008707         2.011925        -1.207442
 C         3.055944         1.500781        -2.297587
 C         3.102391         0.221788        -1.485068
 O         3.790349        -1.007496        -1.639091
 C         1.761740         0.428334        -0.837790
 C         2.985392         0.701833         0.016900
 O         3.541731        -0.031645         1.059498
 C         2.785824         2.240170         0.074016
 H         0.294568         3.174846        -0.914884
 H         1.305133         3.556644        -2.360459
 H         0.329123         2.206612        -2.575271
 H         2.565700         1.483724        -3.251868
 H         4.092233         1.894846        -2.453773
 H         4.054483        -1.389656        -0.804153
 H         0.810880        -0.013420        -0.535561
 H         2.804508        -0.296676         1.635427
 H         2.211058         2.337127         1.058784
 H         3.779718         2.768836         0.008614
