19
Iteration:   443
 C         0.852147         2.815613        -1.843837
 C         1.961134         1.900406        -1.281556
 C         3.092121         1.530010        -2.221200
 C         3.155166         0.246037        -1.332189
 O         3.730449        -0.953841        -1.753167
 C         1.701861         0.425191        -0.802846
 C         2.993295         0.682171         0.079296
 O         3.591772        -0.055849         1.086594
 C         2.773678         2.169967         0.059174
 H         0.015789         2.980152        -1.095122
 H         1.295192         3.830195        -1.919605
 H         0.434229         2.460955        -2.828760
 H         2.830174         1.190825        -3.225632
 H         3.857708         2.198753        -2.305489
 H         4.361754        -1.195027        -1.052421
 H         0.831641        -0.347058        -0.770829
 H         3.416590         0.334132         1.937569
 H         2.150928         2.546520         0.849247
 H         3.537592         2.845248        -0.194129
