19
Iteration:  2067
 C         0.840110         2.759170        -1.847105
 C         1.991242         2.050584        -1.198067
 C         2.982119         1.501398        -2.302517
 C         3.160562         0.239430        -1.411137
 O         3.811314        -1.009212        -1.673094
 C         1.745455         0.517720        -0.761699
 C         2.956111         0.695414         0.051276
 O         3.542058        -0.083224         1.005238
 C         2.842051         2.157304         0.116089
 H         0.059827         3.264282        -1.316245
 H         1.281597         3.603389        -2.378788
 H         0.542931         2.193030        -2.737843
 H         2.460419         1.325330        -3.245412
 H         3.812989         2.157010        -2.459794
 H         4.267648        -1.233565        -0.814018
 H         0.838818        -0.044737        -0.623172
 H         2.985840        -0.297141         1.788057
 H         2.485552         2.504079         1.085725
 H         3.641536         2.879702         0.235863
