19
Iteration:   608charge 0 multiplicity 1
 C         0.877956         2.872520        -1.855187
 C         1.953540         1.931688        -1.243880
 C         3.059060         1.449893        -2.229309
 C         3.081869         0.220847        -1.395217
 O         3.759395        -0.983832        -1.752791
 C         1.751625         0.342881        -0.815596
 C         3.043548         0.728108         0.072480
 O         3.622911         0.014121         1.130576
 C         2.721599         2.213659         0.041124
 H        -0.002831         3.093942        -1.244450
 H         1.240593         3.855498        -2.009494
 H         0.484076         2.461396        -2.802520
 H         2.652607         1.502939        -3.286659
 H         4.024389         2.150175        -2.172652
 H         4.339389        -1.380298        -1.007513
 H         0.910403        -0.487605        -0.716715
 H         2.942399        -0.054669         1.817432
 H         2.129074         2.236696         1.006407
 H         3.536845         2.948785         0.089084
