19
Iteration:  2530charge 0 multiplicity 1
 C         0.839568         2.884155        -1.716477
 C         1.954431         2.004037        -1.292999
 C         3.036927         1.433176        -2.333327
 C         3.074160         0.209163        -1.463802
 O         3.809495        -1.030186        -1.623412
 C         1.784677         0.420347        -0.766681
 C         3.033162         0.777214         0.049843
 O         3.511757        -0.130140         1.044702
 C         2.827358         2.266173         0.034808
 H         0.333456         3.329105        -0.798812
 H         1.282592         3.759867        -2.242181
 H         0.115117         2.410667        -2.515646
 H         2.603197         1.366991        -3.295202
 H         4.036612         1.833721        -2.635901
 H         4.335700        -1.042141        -0.768241
 H         1.011476        -0.265550        -0.563031
 H         2.855588        -0.196081         1.786359
 H         2.078332         2.547000         0.785321
 H         3.846106         2.812653        -0.019003
