19
Iteration:   246charge 0 multiplicity 1
 C         0.848996         2.866124        -1.713974
 C         2.002297         1.979065        -1.222521
 C         3.062853         1.402979        -2.322324
 C         3.113678         0.183032        -1.473412
 O         3.805674        -1.004531        -1.656102
 C         1.789597         0.391941        -0.872833
 C         2.934664         0.745742         0.045745
 O         3.567284         0.020691         1.067500
 C         2.766282         2.228378         0.112707
 H        -0.005106         2.970821        -1.007573
 H         1.213825         3.832908        -2.084425
 H         0.465748         2.346390        -2.599448
 H         2.465755         1.172550        -3.256458
 H         3.943240         2.110398        -2.468508
 H         4.356797        -1.077936        -0.855899
 H         0.961127        -0.159436        -0.725430
 H         2.896990        -0.492537         1.544662
 H         2.070536         2.526009         0.867932
 H         3.688820         2.873163        -0.024930
