19
Iteration:  2271charge 0 multiplicity 1
 C         0.900594         2.875135        -1.764100
 C         1.949295         1.917717        -1.277421
 C         3.115305         1.466557        -2.298607
 C         3.147114         0.272436        -1.389389
 O         3.651275        -0.988748        -1.632504
 C         1.761215         0.418837        -0.876174
 C         2.930236         0.715150         0.155110
 O         3.660522        -0.101303         1.068526
 C         2.715396         2.215853         0.054020
 H         0.175248         2.834845        -0.928142
 H         1.319204         3.923164        -1.910630
 H         0.650239         2.680014        -2.787436
 H         2.687145         1.168439        -3.307085
 H         3.854724         2.178494        -2.591861
 H         4.587640        -1.183694        -1.376902
 H         1.025664        -0.433178        -1.109921
 H         3.188347         0.100915         1.913317
 H         1.979178         2.632430         0.695956
 H         3.551783         2.880802        -0.194639
