19
Iteration:  1444charge 0 multiplicity 1
 C         0.866965         2.851991        -1.870324
 C         1.861077         1.876040        -1.284795
 C         3.095962         1.460138        -2.193555
 C         3.151619         0.265666        -1.344224
 O         3.690117        -1.016488        -1.608977
 C         1.752071         0.367824        -0.810698
 C         2.934737         0.736584         0.097848
 O         3.636021         0.026130         1.123066
 C         2.799922         2.212665         0.055120
 H         0.124963         2.996215        -1.096362
 H         1.321309         3.857241        -1.845911
 H         0.378460         2.634498        -2.847995
 H         2.873006         1.378157        -3.279858
 H         3.957827         2.186777        -2.190779
 H         4.145008        -1.012170        -2.433190
 H         0.830770        -0.367910        -0.795996
 H         4.093095        -0.653130         0.632066
 H         2.197346         2.687150         0.814431
 H         3.546610         2.812966        -0.340282
