19
Iteration:  4257charge 0 multiplicity 1
 C         0.786753         2.923330        -1.751405
 C         1.964727         1.932126        -1.314766
 C         3.179219         1.345696        -2.393743
 C         3.173900         0.184782        -1.466064
 O         3.970485        -0.944952        -1.594866
 C         1.788234         0.497782        -0.824812
 C         2.985797         0.716216         0.095284
 O         3.337362         0.022372         1.190477
 C         2.717836         2.216859         0.076471
 H         0.233818         3.125891        -0.821191
 H         1.132054         3.897754        -1.927722
 H         0.121158         2.422169        -2.446519
 H         2.714126         0.867351        -3.249645
 H         3.970387         2.034565        -2.462644
 H         3.729113        -1.594518        -2.279413
 H         1.040370        -0.204815        -0.715144
 H         3.409846        -0.954278         0.969926
 H         2.065938         2.506392         0.931298
 H         3.743817         2.796684         0.044837
