19
Iteration:  2053
 C         0.829719         2.858703        -1.844892
 C         1.977212         1.959993        -1.232212
 C         3.030737         1.462345        -2.295961
 C         3.142379         0.249579        -1.377978
 O         3.823983        -0.895751        -1.685682
 C         1.711037         0.493568        -0.821101
 C         2.960196         0.657084         0.112806
 O         3.573284        -0.162056         1.096759
 C         2.870960         2.245084         0.054872
 H         0.157395         3.152442        -1.045600
 H         1.213488         3.708483        -2.415134
 H         0.222506         2.151996        -2.328142
 H         2.375260         1.121760        -3.175115
 H         3.921933         2.018870        -2.666090
 H         4.137805        -1.314585        -0.887374
 H         0.851922        -0.077150        -0.850217
 H         2.840024        -0.342497         1.738952
 H         2.089569         2.641364         0.743527
 H         3.815801         2.677450        -0.221984
