19
Iteration:  2341charge 0 multiplicity 1
 C         0.880713         2.839407        -1.663217
 C         1.984907         1.963407        -1.345894
 C         3.043526         1.360704        -2.317328
 C         3.242738         0.274790        -1.298910
 O         3.790406        -0.872010        -1.727797
 C         1.698919         0.398873        -0.798377
 C         2.944380         0.695105         0.084684
 O         3.489012        -0.077686         1.096893
 C         2.831481         2.251988        -0.039622
 H         0.297610         2.966893        -0.774835
 H         1.235339         3.796576        -2.019580
 H         0.416980         2.539135        -2.597559
 H         2.705179         1.043958        -3.294314
 H         3.946803         1.964486        -2.633672
 H         3.888321        -1.523584        -1.015412
 H         0.869391        -0.250720        -0.592804
 H         2.764748        -0.222596         1.723803
 H         2.338216         2.797943         0.735898
 H         3.789455         2.603021        -0.279797
