19
Iteration:  4768
 C         0.933645         2.868354        -1.773747
 C         1.929882         1.916310        -1.274911
 C         3.018223         1.451356        -2.222833
 C         3.140824         0.170036        -1.387486
 O         3.985042        -0.924831        -1.566498
 C         1.741655         0.349285        -0.824952
 C         2.987504         0.707551         0.051748
 O         3.476852        -0.025564         1.014500
 C         2.712570         2.267930         0.006280
 H         0.394005         3.353772        -0.929553
 H         1.387299         3.807753        -2.156272
 H         0.337185         2.521408        -2.601019
 H         2.682021         1.428335        -3.280882
 H         3.800142         2.216229        -2.301879
 H         3.421972        -1.689463        -1.461932
 H         0.801983        -0.250044        -0.596269
 H         2.928842        -0.733376         1.351006
 H         2.026042         2.732944         0.787574
 H         3.510745         2.975556        -0.248688
