19
Iteration:  1706
 C         0.869166         2.927516        -1.702576
 C         1.997856         1.967127        -1.240796
 C         2.954016         1.397651        -2.332924
 C         3.066374         0.171010        -1.480628
 O         3.887575        -0.934669        -1.701224
 C         1.725860         0.444532        -0.811286
 C         3.042533         0.675497        -0.031930
 O         3.484859        -0.031608         1.208845
 C         2.819417         2.196898         0.039028
 H         0.071641         3.150923        -1.021920
 H         1.420580         3.657036        -2.271825
 H         0.438741         2.217828        -2.451244
 H         2.623781         0.961004        -3.291518
 H         3.981376         1.961978        -2.477680
 H         4.769981        -0.775249        -1.261773
 H         0.778954         0.009795        -0.333904
 H         2.625033        -0.465888         1.541987
 H         2.136602         2.464924         0.863406
 H         3.733477         2.844116        -0.068589
