19
Iteration:  2561
 C         0.937284         2.898112        -1.815659
 C         1.948680         1.906387        -1.310792
 C         3.015142         1.415798        -2.214862
 C         3.108004         0.236953        -1.314134
 O         3.799019        -0.941146        -1.720657
 C         1.657860         0.451286        -0.807370
 C         2.923807         0.784791         0.111509
 O         3.678004        -0.137625         1.021843
 C         2.773866         2.225117         0.009451
 H         0.438889         3.458601        -1.013874
 H         1.432970         3.730240        -2.338396
 H         0.120054         2.452142        -2.452297
 H         2.604686         1.001181        -3.119705
 H         3.907228         1.935660        -2.457705
 H         3.661507        -1.588791        -1.022427
 H         0.905785        -0.225370        -0.629101
 H         3.371069        -0.129014         1.934213
 H         2.135489         2.701322         0.706915
 H         3.659965         2.829198         0.283468
