19
Iteration:  2808charge 0 multiplicity 1
 C         0.855207         2.862281        -1.627972
 C         1.976373         1.981388        -1.285701
 C         2.997744         1.461484        -2.396584
 C         3.183425         0.204352        -1.460973
 O         3.726397        -1.062620        -1.553690
 C         1.810558         0.480427        -0.869379
 C         3.099747         0.723358        -0.010938
 O         3.443935        -0.019621         1.131174
 C         2.855862         2.189530        -0.012764
 H         0.034207         2.830941        -0.876140
 H         1.094949         3.981905        -1.905099
 H         0.514505         2.471258        -2.584547
 H         2.365022         1.390689        -3.323812
 H         3.832205         2.169946        -2.467535
 H         4.639098        -0.864069        -1.189302
 H         0.933216        -0.148758        -0.391603
 H         2.653411        -0.498993         1.360444
 H         2.171612         2.354198         0.823203
 H         3.931133         2.719299        -0.097897
