19
Iteration:  1127charge 0 multiplicity 1
 C         0.821542         2.802683        -1.826010
 C         1.934838         1.976149        -1.256975
 C         3.073713         1.522156        -2.255060
 C         3.224078         0.199971        -1.402148
 O         3.737213        -1.069353        -1.659650
 C         1.771575         0.430850        -0.746938
 C         3.020048         0.705554         0.002438
 O         3.573593         0.087745         1.057780
 C         2.721190         2.189875         0.086802
 H        -0.120148         2.938439        -1.248531
 H         1.297342         3.831498        -2.005845
 H         0.572990         2.490164        -2.828590
 H         2.627961         1.146515        -3.206444
 H         3.956958         2.128123        -2.312669
 H         4.477744        -1.263516        -0.997741
 H         1.025007        -0.435483        -0.676320
 H         3.044074        -0.688206         1.382887
 H         2.068476         2.560176         0.957714
 H         3.514576         3.001966        -0.044505
