19
Iteration:  3520charge 0 multiplicity 1
 C         0.805512         2.831518        -1.795779
 C         2.035768         2.005059        -1.268076
 C         3.112361         1.451323        -2.272385
 C         3.137909         0.197140        -1.397042
 O         3.782847        -0.997684        -1.697896
 C         1.755774         0.497657        -0.830977
 C         2.984329         0.723700         0.063599
 O         3.429983        -0.065280         1.077204
 C         2.823910         2.187190         0.083394
 H        -0.001454         2.866809        -1.105288
 H         0.981323         3.793202        -2.295769
 H         0.383820         2.064226        -2.451275
 H         2.675313         1.223451        -3.253724
 H         4.065073         1.971768        -2.502901
 H         4.181387        -1.433481        -0.927868
 H         0.807794        -0.001909        -0.668961
 H         3.945142         0.491582         1.661108
 H         2.302152         2.296303         1.057313
 H         3.624106         2.938510         0.036963
