19
Iteration:  3884charge 0 multiplicity 1
 C         0.908814         2.941865        -1.814465
 C         1.947523         1.954563        -1.257298
 C         2.998461         1.347431        -2.267529
 C         3.109192         0.155156        -1.355777
 O         3.891643        -0.957263        -1.665971
 C         1.731351         0.466493        -0.885564
 C         3.030061         0.776453         0.053527
 O         3.504357        -0.081407         1.121754
 C         2.671804         2.184529         0.051113
 H        -0.020703         3.102243        -1.143687
 H         1.286382         3.956534        -1.906925
 H         0.677185         2.462395        -2.793480
 H         2.550519         1.002228        -3.169881
 H         3.898958         1.922687        -2.557167
 H         3.821757        -1.420028        -0.806543
 H         0.827433        -0.112267        -0.529190
 H         4.382720         0.294430         1.005554
 H         2.079879         2.595233         0.881542
 H         3.631607         2.820898         0.055275
