19
Iteration:  3198charge 0 multiplicity 1
 C         0.878498         2.855955        -1.727852
 C         1.900741         1.891172        -1.319470
 C         3.087857         1.446563        -2.249818
 C         3.245795         0.201726        -1.388458
 O         3.712394        -0.975403        -1.696790
 C         1.778640         0.472583        -0.800804
 C         3.064063         0.737575         0.063664
 O         3.531282        -0.061932         1.087053
 C         2.719439         2.258990         0.031174
 H         0.115369         3.340305        -1.048734
 H         1.563856         3.583508        -2.127109
 H         0.322076         2.529028        -2.595508
 H         2.803594         1.082345        -3.315136
 H         3.851234         2.240479        -2.240505
 H         4.190049        -1.248151        -0.869620
 H         0.909898        -0.281154        -0.819966
 H         2.871092        -0.666689         1.407652
 H         2.115981         2.593849         0.823143
 H         3.499869         2.975934        -0.144763
