19
Iteration:  3950
 C         0.809362         2.874074        -1.678564
 C         1.969122         1.918120        -1.411921
 C         3.086110         1.384187        -2.319130
 C         3.077969         0.128566        -1.405965
 O         3.941795        -0.987332        -1.687792
 C         1.748030         0.561470        -0.800618
 C         2.908824         0.747841         0.077243
 O         3.399464        -0.045277         1.101237
 C         2.877254         2.188168         0.062080
 H         0.121011         3.058111        -0.808757
 H         0.933627         3.854505        -2.161090
 H         0.315105         2.224555        -2.459168
 H         2.800180         1.222049        -3.294912
 H         3.983411         2.019889        -2.396471
 H         4.073179        -1.482071        -0.879205
 H         0.929294        -0.108109        -0.637399
 H         3.941372         0.525558         1.659340
 H         2.226384         2.710313         0.720721
 H         3.734180         2.790082        -0.024998
