19
Iteration:  2186
 C         0.819573         2.921732        -1.738784
 C         1.961220         1.966959        -1.295302
 C         3.032150         1.301985        -2.362493
 C         3.239355         0.261483        -1.276091
 O         3.846893        -0.883833        -1.702360
 C         1.755808         0.467327        -0.696833
 C         2.946505         0.743958         0.050797
 O         3.485799        -0.225774         1.075580
 C         2.806785         2.249262        -0.037917
 H         0.253191         3.340211        -0.881399
 H         1.271166         3.949123        -2.085265
 H         0.100035         2.640392        -2.552994
 H         2.405353         1.010507        -3.297666
 H         4.023273         1.825153        -2.643477
 H         4.348430        -1.194689        -0.966968
 H         0.977260        -0.398622        -0.921119
 H         2.750516        -0.247053         1.729357
 H         2.401072         2.912695         0.827274
 H         3.653855         2.885293        -0.284113
