19
Iteration:  4049
 C         0.949624         2.837285        -1.770540
 C         1.969361         1.931982        -1.253987
 C         3.101108         1.395435        -2.348152
 C         3.140109         0.222742        -1.429386
 O         3.812136        -1.024350        -1.587504
 C         1.741154         0.415748        -0.875898
 C         2.836058         0.720238         0.140315
 O         3.487328         0.082748         1.155689
 C         2.731253         2.169162         0.042490
 H         0.087336         2.960253        -1.031897
 H         1.350580         3.873345        -1.802005
 H         0.411037         2.585912        -2.730208
 H         2.691161         1.161373        -3.281026
 H         3.941741         2.117411        -2.320981
 H         4.552270        -0.619314        -2.070757
 H         0.878925        -0.264136        -0.747240
 H         4.212801        -0.451962         0.719742
 H         2.066393         2.595182         0.742610
 H         3.624303         2.721018         0.001428
