19
Iteration:  3621
 C         0.864366         2.924083        -1.734172
 C         1.924196         1.884917        -1.294478
 C         3.025354         1.367783        -2.376128
 C         3.207533         0.246034        -1.359423
 O         3.904815        -0.930820        -1.651196
 C         1.731730         0.403556        -0.795321
 C         3.049233         0.723110         0.073575
 O         3.334401        -0.083550         1.080644
 C         2.834112         2.281236         0.025083
 H         0.210534         3.042799        -0.816526
 H         1.295520         3.775956        -2.222804
 H         0.183505         2.493072        -2.514309
 H         2.500783         1.089563        -3.329055
 H         3.898123         2.096340        -2.329915
 H         3.608234        -1.730801        -1.134774
 H         0.849130        -0.242115        -0.553926
 H         4.248638         0.147415         1.423637
 H         2.209613         2.760045         0.862795
 H         3.768612         2.755973        -0.111866
