19
Iteration:  4548
 C         0.822904         2.813325        -1.762888
 C         1.975335         1.915196        -1.253351
 C         3.081202         1.480857        -2.322743
 C         3.215346         0.238238        -1.376181
 O         3.937128        -0.977060        -1.700642
 C         1.831112         0.406952        -0.845149
 C         2.980447         0.756813         0.088111
 O         3.227341        -0.070897         1.104104
 C         2.781370         2.245015         0.036919
 H        -0.017426         2.931823        -1.058993
 H         1.261041         3.804332        -2.015545
 H         0.269471         2.556019        -2.643490
 H         2.551940         1.270125        -3.300714
 H         4.102976         1.955064        -2.500182
 H         4.236484        -1.321838        -0.789348
 H         0.923608        -0.273843        -0.648478
 H         4.183487        -0.008111         1.387239
 H         2.138862         2.562282         0.954366
 H         3.698723         2.939536        -0.003966
