19
Iteration:  1437
 C         0.870941         2.868971        -1.837153
 C         1.809381         1.884675        -1.231130
 C         3.154041         1.494899        -2.193130
 C         3.055992         0.223814        -1.367528
 O         3.707416        -1.020699        -1.586522
 C         1.750045         0.384559        -0.804306
 C         2.978309         0.722526         0.058489
 O         3.664327         0.033316         1.105779
 C         2.734832         2.181007        -0.014262
 H         0.027884         3.108846        -1.141449
 H         1.454685         3.796925        -1.916461
 H         0.656584         2.454453        -2.853430
 H         2.856400         1.350914        -3.339072
 H         3.995610         2.211792        -1.939069
 H         4.283181        -0.952343        -2.340955
 H         0.928202        -0.210070        -0.752879
 H         4.051171        -0.814509         0.829436
 H         2.181385         2.764734         0.764258
 H         3.605981         2.886426        -0.318811
