19
Iteration:  4529
 C         0.947235         2.812827        -1.768923
 C         1.932924         1.893412        -1.275051
 C         3.069156         1.502706        -2.261193
 C         3.196805         0.244368        -1.489493
 O         3.889457        -0.920856        -1.643884
 C         1.797707         0.414979        -0.863612
 C         3.028530         0.644013         0.018037
 O         3.324666        -0.004138         1.208844
 C         2.687528         2.200323        -0.008650
 H         0.101539         2.856896        -0.934278
 H         1.256534         3.856583        -1.905757
 H         0.543315         2.408334        -2.736349
 H         2.896126         1.290627        -3.293434
 H         3.739762         2.457899        -2.249434
 H         3.586543        -1.547262        -0.908912
 H         1.016842        -0.317015        -0.617922
 H         4.255368        -0.281760         1.203894
 H         2.020548         2.488706         0.789021
 H         3.476056         2.963709         0.015855
