19
Iteration:  3906
 C         0.911040         2.861847        -1.760982
 C         1.962722         1.951229        -1.305867
 C         2.937519         1.413615        -2.399845
 C         3.222612         0.247979        -1.439390
 O         3.857753        -0.963061        -1.577260
 C         1.772291         0.376990        -0.711016
 C         2.983283         0.744005         0.042573
 O         3.409645        -0.077785         1.097647
 C         2.732161         2.232334        -0.017649
 H         0.304583         3.220418        -0.883106
 H         1.540815         3.782261        -1.686264
 H         0.454498         2.826385        -2.772575
 H         2.560978         1.164271        -3.333747
 H         3.841262         2.033293        -2.625341
 H         3.974384        -1.128383        -0.616843
 H         0.992350        -0.429985        -0.787107
 H         4.407780        -0.144069         1.128032
 H         1.979385         2.585747         0.660061
 H         3.638426         2.730983         0.311368
