19
Iteration:   746
 C         0.819756         2.889146        -1.851943
 C         1.901194         1.929165        -1.181154
 C         3.003609         1.461331        -2.288750
 C         3.145148         0.228038        -1.420104
 O         3.838821        -0.982494        -1.719520
 C         1.796474         0.354918        -0.863536
 C         3.041274         0.689197         0.063814
 O         3.519105        -0.038290         1.154020
 C         2.817893         2.237483         0.071210
 H        -0.068723         3.165246        -1.224805
 H         1.463441         3.822794        -2.021681
 H         0.589376         2.291114        -2.715712
 H         2.544684         1.171051        -3.217451
 H         3.755014         2.263533        -2.470233
 H         4.047316        -1.263808        -0.846866
 H         1.020076        -0.370661        -0.714206
 H         2.940411         0.262688         1.905902
 H         2.274620         2.648678         0.892015
 H         3.646932         2.793210        -0.279518
