19
Iteration:  2711
 C         0.960251         2.903166        -1.771950
 C         1.932932         1.925284        -1.301925
 C         2.995614         1.366110        -2.283392
 C         3.216693         0.246814        -1.309303
 O         3.725127        -0.916586        -1.780330
 C         1.766614         0.424977        -0.739748
 C         2.984918         0.743681         0.100067
 O         3.583374        -0.037567         1.094552
 C         2.753759         2.210752         0.004424
 H         0.307156         3.211302        -0.969805
 H         1.473659         3.743302        -2.353852
 H         0.294277         2.479083        -2.500965
 H         2.380791         0.917226        -3.126340
 H         3.954727         1.892943        -2.426943
 H         3.781397        -1.531652        -1.008663
 H         0.993997        -0.361973        -0.988216
 H         2.902008        -0.163561         1.757595
 H         2.195194         2.403591         0.941132
 H         3.696450         2.760504        -0.116773
