19
Iteration:   438charge 0 multiplicity 1
 C         0.875783         2.780125        -1.806187
 C         1.944225         1.928141        -1.310428
 C         3.091705         1.506239        -2.215109
 C         3.115542         0.272187        -1.300091
 O         3.720089        -0.946531        -1.752430
 C         1.686929         0.410797        -0.835056
 C         3.021172         0.697341         0.087488
 O         3.601302        -0.080542         1.101094
 C         2.786618         2.182391         0.044249
 H         0.051946         2.866015        -1.145822
 H         1.250884         3.786724        -2.024415
 H         0.416105         2.526346        -2.737243
 H         2.694364         1.060698        -3.153989
 H         3.997216         2.279687        -2.446421
 H         4.440090        -1.102672        -1.070409
 H         0.913522        -0.254589        -1.101554
 H         3.343534         0.343169         1.972958
 H         2.074044         2.559430         0.860591
 H         3.651586         2.962551        -0.096363
