19
Iteration:  3787charge 0 multiplicity 1
 C         0.896182         2.818206        -1.675580
 C         1.963540         1.901176        -1.303650
 C         3.040448         1.376148        -2.292449
 C         3.153095         0.195323        -1.396305
 O         3.906250        -0.919014        -1.675159
 C         1.743870         0.431710        -0.840336
 C         2.944918         0.775792         0.071345
 O         3.367008        -0.102228         1.098610
 C         2.771883         2.335115        -0.046065
 H         0.432283         3.111656        -0.750660
 H         1.317952         3.669085        -2.090974
 H         0.262611         2.366098        -2.419398
 H         2.784035         1.005527        -3.248748
 H         3.951059         2.038962        -2.428975
 H         3.811414        -1.390133        -0.843573
 H         0.790441        -0.153706        -0.772315
 H         4.176768        -0.028025         1.584149
 H         2.405201         2.940300         0.826550
 H         3.761331         2.704774        -0.223367
