19
Iteration:  4457charge 0 multiplicity 1
 C         0.863563         2.837114        -1.870146
 C         1.873426         1.964538        -1.249077
 C         3.038684         1.534982        -2.312479
 C         3.202230         0.302152        -1.441649
 O         3.888862        -0.945917        -1.423276
 C         1.754229         0.395383        -0.848555
 C         2.993140         0.696565         0.041768
 O         3.450949        -0.027265         1.123852
 C         2.756087         2.103577         0.072946
 H        -0.047318         2.945348        -1.298124
 H         1.378428         3.767854        -2.229657
 H         0.474447         2.306668        -2.782044
 H         2.759138         1.639546        -3.454552
 H         4.065935         1.976396        -2.202743
 H         4.052250        -1.249858        -2.342394
 H         1.015124        -0.343419        -0.727805
 H         3.633280        -0.912153         0.799658
 H         2.133030         2.462513         0.968843
 H         3.560549         2.898727        -0.017993
