19
Iteration:  3608charge 0 multiplicity 1
 C         0.914817         2.867619        -1.701385
 C         1.966538         1.951326        -1.273005
 C         3.032740         1.378231        -2.291254
 C         3.068044         0.177542        -1.418869
 O         3.928550        -0.877365        -1.617365
 C         1.781709         0.419539        -0.802403
 C         2.917068         0.744392        -0.021562
 O         3.383241        -0.047397         1.119165
 C         2.814752         2.169238        -0.024212
 H         0.262060         3.293815        -0.949030
 H         1.412707         3.821431        -1.899741
 H         0.365252         2.509456        -2.577197
 H         2.491378         1.088841        -3.243500
 H         3.899021         1.927019        -2.727180
 H         3.633641        -1.512578        -0.979208
 H         1.067976        -0.357553        -0.603664
 H         4.305189         0.125930         1.261532
 H         2.296547         2.377266         0.890467
 H         3.565373         2.955913        -0.191823
