19
Iteration:  1147charge 0 multiplicity 1
 C         0.826768         2.754318        -1.791191
 C         1.922413         1.893497        -1.291561
 C         3.107876         1.518713        -2.272172
 C         3.143151         0.254568        -1.428855
 O         3.722130        -1.024415        -1.761069
 C         1.803824         0.376174        -0.847784
 C         2.988482         0.711991         0.074053
 O         3.538917         0.121807         1.286527
 C         2.854865         2.191298        -0.025478
 H        -0.021074         2.737246        -1.041268
 H         1.029253         3.852630        -1.902298
 H         0.378517         2.461772        -2.724378
 H         2.716302         1.400964        -3.343045
 H         3.879734         2.162184        -2.055345
 H         4.345736        -1.214216        -1.021458
 H         0.768898        -0.142416        -0.750897
 H         3.198111        -0.773855         1.407005
 H         2.162149         2.627860         0.849938
 H         3.839174         2.853034        -0.213758
