19
Iteration:  2521
 C         0.841737         2.862630        -1.689509
 C         2.029690         2.034152        -1.307662
 C         2.990961         1.494750        -2.394009
 C         3.090462         0.150061        -1.445710
 O         3.810646        -1.038745        -1.595326
 C         1.746130         0.382219        -0.822839
 C         3.006903         0.723884         0.043278
 O         3.480359        -0.051362         1.039318
 C         2.913417         2.256879         0.057365
 H         0.176559         3.104379        -0.793088
 H         1.325054         3.732238        -2.119150
 H         0.129510         2.383930        -2.466248
 H         2.432277         1.274539        -3.309757
 H         3.942514         2.136309        -2.331469
 H         4.479784        -1.084797        -0.845711
 H         0.971456        -0.335489        -0.447251
 H         2.681620        -0.229169         1.609847
 H         2.216416         2.548891         0.907235
 H         3.800660         2.979528         0.008399
