19
Iteration:   509charge 0 multiplicity 1
 C         0.846280         2.925581        -1.716690
 C         1.965791         1.940775        -1.341629
 C         3.005661         1.420194        -2.432136
 C         3.130438         0.236417        -1.389017
 O         3.856167        -0.880502        -1.593854
 C         1.817208         0.370316        -0.827903
 C         2.859935         0.652673         0.163768
 O         3.585398        -0.108762         1.069735
 C         2.796370         2.268329         0.028494
 H         0.146015         3.143113        -0.849645
 H         1.255569         3.894901        -2.034490
 H         0.135554         2.591752        -2.527872
 H         2.508666         1.052847        -3.386034
 H         3.799223         2.050816        -2.654697
 H         4.332115        -1.297603        -0.805939
 H         0.987917        -0.560350        -0.876083
 H         2.928994        -0.517703         1.704238
 H         2.281229         2.902074         0.793547
 H         3.745500         2.725691        -0.180395
