19
Iteration:  1434charge 0 multiplicity 1
 C         0.874522         2.878337        -1.807939
 C         1.825795         1.887509        -1.214785
 C         3.158410         1.508540        -2.196987
 C         3.040034         0.198945        -1.399394
 O         3.714421        -1.021760        -1.572713
 C         1.733602         0.405205        -0.797111
 C         3.009381         0.693452         0.062432
 O         3.670722         0.042299         1.094395
 C         2.698897         2.201556        -0.050920
 H        -0.049650         3.106494        -1.276519
 H         1.508334         3.759522        -2.021319
 H         0.696542         2.440210        -2.820671
 H         2.872171         1.341380        -3.325262
 H         4.041765         2.185364        -1.909808
 H         4.348118        -0.882907        -2.290216
 H         0.809461        -0.305886        -0.691180
 H         3.986856        -0.830363         0.866221
 H         2.197574         2.684025         0.795865
 H         3.570938         2.817583        -0.187148
