19
Iteration:  4110charge 0 multiplicity 1
 C         0.846190         2.823666        -1.804300
 C         2.022448         1.989874        -1.226120
 C         3.113232         1.395118        -2.334895
 C         3.163275         0.247105        -1.407804
 O         3.919117        -0.925715        -1.577249
 C         1.791048         0.387533        -0.827869
 C         2.897453         0.687352         0.029543
 O         3.414888         0.029556         1.144744
 C         2.788467         2.214262         0.064372
 H         0.312410         2.960189        -0.885451
 H         1.139818         3.800822        -2.183768
 H         0.265170         2.326757        -2.516529
 H         2.567072         1.255932        -3.323445
 H         3.920882         2.068031        -2.610209
 H         3.403731        -1.524321        -2.116318
 H         0.953389        -0.202317        -0.664275
 H         3.157798        -0.877699         1.029973
 H         1.999576         2.624854         0.773260
 H         3.719931         2.902107         0.129359
