19
Iteration:  1926charge 0 multiplicity 1
 C         0.853664         2.797547        -1.856970
 C         1.977019         1.956902        -1.233018
 C         3.111392         1.513630        -2.240864
 C         3.064944         0.254304        -1.487714
 O         3.691374        -1.017423        -1.652481
 C         1.701353         0.482618        -0.837272
 C         3.088240         0.736283         0.033664
 O         3.637448        -0.059614         1.065235
 C         2.776483         2.175222         0.120461
 H         0.006172         2.650907        -1.168561
 H         1.163027         3.867499        -1.969457
 H         0.741510         2.206140        -2.818517
 H         2.533867         1.520151        -3.191118
 H         4.074478         2.100683        -2.358025
 H         4.195367        -1.211344        -0.869133
 H         0.919966        -0.096616        -0.631532
 H         2.978310        -0.208024         1.795235
 H         2.021624         2.392077         0.851587
 H         3.471835         2.939269         0.384503
