19
Iteration:  3049charge 0 multiplicity 1
 C         0.861434         2.868493        -1.758421
 C         1.986820         1.956875        -1.269032
 C         3.147273         1.436824        -2.212102
 C         3.114797         0.175368        -1.366500
 O         3.705095        -1.032998        -1.771642
 C         1.768367         0.417946        -0.779324
 C         2.905089         0.678942         0.078767
 O         3.572382         0.036105         1.150964
 C         2.791079         2.238659         0.001252
 H         0.075414         3.179933        -1.107767
 H         1.302566         3.838524        -2.129953
 H         0.365146         2.319538        -2.585247
 H         2.945314         1.510158        -3.257964
 H         3.908087         2.269195        -2.292047
 H         4.676802        -1.022158        -1.668412
 H         0.809892        -0.185505        -0.675900
 H         3.043904        -0.727745         1.363735
 H         2.188593         2.507905         0.879328
 H         3.584438         2.907462        -0.309856
