19
Iteration:  4330
 C         0.902714         2.810000        -1.869766
 C         1.966778         1.952569        -1.311383
 C         3.098287         1.387830        -2.199421
 C         3.263540         0.223504        -1.347734
 O         3.896255        -0.990808        -1.630879
 C         1.689654         0.463635        -0.814363
 C         2.903871         0.684321         0.031085
 O         3.532309        -0.077665         1.096886
 C         2.681635         2.278136         0.071435
 H         0.047895         2.851088        -1.116752
 H         1.230025         3.914368        -1.966810
 H         0.458211         2.411667        -2.779545
 H         2.591065         1.437734        -3.195870
 H         4.026237         2.037317        -2.090599
 H         3.660745        -0.937621        -2.536015
 H         0.715683         0.009124        -0.713802
 H         3.155166         0.368991         1.851436
 H         1.944385         2.358668         0.831085
 H         3.487329         2.961825         0.162939
