19
Iteration:  2671charge 0 multiplicity 1
 C         0.791527         2.881397        -1.649972
 C         2.030239         2.037003        -1.269796
 C         3.025644         1.395086        -2.325010
 C         3.108424         0.172620        -1.459704
 O         3.786878        -1.094146        -1.612219
 C         1.795960         0.494888        -0.818826
 C         3.015069         0.702588         0.018811
 O         3.426129         0.017516         1.070998
 C         2.906649         2.206226         0.008078
 H         0.217143         2.858859        -0.730407
 H         0.999999         3.907814        -1.820388
 H         0.255381         2.402250        -2.514458
 H         2.756481         1.308129        -3.405372
 H         3.974474         2.013607        -2.412381
 H         4.742597        -0.910014        -1.552070
 H         0.965290        -0.312729        -0.648004
 H         2.719098        -0.117588         1.760823
 H         2.284976         2.566877         0.911247
 H         3.832520         2.755200        -0.357655
