19
Iteration:  3830
 C         0.853800         2.792222        -1.817753
 C         1.978224         1.925345        -1.250520
 C         3.095973         1.478078        -2.282147
 C         3.187804         0.191403        -1.354146
 O         3.734565        -0.992921        -1.734821
 C         1.783040         0.443169        -0.938250
 C         3.058499         0.746775         0.037583
 O         3.398566        -0.039977         1.228542
 C         2.821138         2.281321         0.109934
 H         0.111311         2.967037        -0.993242
 H         1.144592         3.652936        -2.363484
 H         0.287308         2.294747        -2.622490
 H         2.544278         1.189911        -3.136338
 H         3.937540         2.173644        -2.563165
 H         3.907893        -1.517067        -0.926137
 H         0.833976        -0.143132        -0.762960
 H         4.336465        -0.018286         1.054313
 H         2.116701         2.371659         1.005960
 H         3.545015         3.182067        -0.029117
