19
Iteration:   756
 C         0.915858         2.823462        -1.822453
 C         1.826177         1.868189        -1.249704
 C         2.976751         1.460505        -2.201119
 C         3.191872         0.214529        -1.454651
 O         3.804003        -0.957832        -1.673812
 C         1.751973         0.450251        -0.825785
 C         3.061482         0.732638        -0.032613
 O         3.546808        -0.021566         1.137279
 C         2.776588         2.165314         0.046711
 H        -0.023668         3.142204        -1.270216
 H         1.497445         3.796424        -2.181682
 H         0.546109         2.610867        -2.845802
 H         2.431876         1.278894        -3.124975
 H         3.863833         2.149877        -2.223662
 H         4.306028        -1.226235        -0.932075
 H         0.928968        -0.284290        -0.753564
 H         3.001000         0.350227         1.896651
 H         2.403574         2.361901         1.028385
 H         3.664620         2.833497         0.078570
