19
Iteration:  1393charge 0 multiplicity 1
 C         0.876465         2.863023        -1.729992
 C         1.999985         1.942278        -1.301848
 C         3.004980         1.368439        -2.397609
 C         3.208538         0.288410        -1.382778
 O         3.746200        -0.990643        -1.588971
 C         1.758895         0.439924        -0.819758
 C         2.884252         0.755144         0.085520
 O         3.629377        -0.038221         1.128853
 C         2.714873         2.235250         0.112176
 H         0.103202         3.246462        -1.065152
 H         1.319048         3.788180        -2.103930
 H         0.489979         2.357826        -2.658258
 H         2.310956         1.027225        -3.211307
 H         3.851779         1.858442        -2.899863
 H         4.663436        -1.093133        -1.286811
 H         0.911944        -0.223967        -0.943667
 H         3.799693        -0.835833         0.565811
 H         1.874359         2.515511         0.776700
 H         3.530379         3.041770         0.030100
