19
Iteration:  3303
 C         0.989715         2.885919        -1.699681
 C         1.973297         1.926117        -1.294571
 C         2.950498         1.359375        -2.386474
 C         3.127509         0.215908        -1.372512
 O         3.955902        -0.897041        -1.679401
 C         1.740025         0.465097        -0.815110
 C         2.885850         0.681150         0.073229
 O         3.350348        -0.024108         1.080906
 C         2.817825         2.153850         0.025743
 H         0.377200         3.066347        -0.803778
 H         1.264116         3.936273        -1.992266
 H         0.436536         2.554930        -2.611696
 H         2.450615         1.053142        -3.236799
 H         3.823384         1.980359        -2.585484
 H         4.278236        -1.298202        -0.884761
 H         0.915545        -0.283907        -0.450328
 H         4.268373         0.182050         1.338449
 H         1.997822         2.397601         0.790068
 H         3.705725         2.827522         0.254811
