19
Iteration:  4264charge 0 multiplicity 1
 C         0.798186         2.905051        -1.739433
 C         1.978608         1.979210        -1.259245
 C         3.138193         1.321897        -2.381762
 C         3.282465         0.214256        -1.409929
 O         3.965154        -0.945811        -1.587758
 C         1.786924         0.423147        -0.857769
 C         2.933325         0.718633         0.076686
 O         3.387821        -0.002388         1.171332
 C         2.710395         2.273743         0.022166
 H         0.173058         3.080930        -0.847598
 H         1.269358         3.887858        -2.090987
 H         0.102479         2.441677        -2.432459
 H         2.562115         1.143336        -3.369580
 H         3.999843         2.034382        -2.540343
 H         3.383515        -1.589999        -2.124331
 H         0.754207        -0.134579        -0.869539
 H         3.138211        -0.972657         1.072508
 H         2.050775         2.442636         0.857776
 H         3.633813         2.742128         0.224964
