19
Iteration:  1914
 C         0.891314         2.750174        -1.752257
 C         2.038624         2.010812        -1.246839
 C         3.047153         1.534631        -2.313452
 C         3.138544         0.219130        -1.396150
 O         3.666299        -0.981427        -1.658796
 C         1.808221         0.455028        -0.883919
 C         2.966801         0.669634         0.042215
 O         3.644632        -0.027581         1.057125
 C         2.726868         2.198101         0.136867
 H        -0.059282         2.958969        -1.237180
 H         1.202469         3.777752        -2.121940
 H         0.470233         2.357298        -2.750080
 H         2.754977         1.110581        -3.293253
 H         3.961231         2.149774        -2.432287
 H         4.002919        -1.286839        -0.763531
 H         0.875946         0.009115        -0.950345
 H         2.991502        -0.133134         1.726842
 H         2.036604         2.265711         0.959031
 H         3.624140         2.812992         0.065976
