19
Iteration:  2080
 C         0.905726         2.814381        -1.881470
 C         1.934396         1.930807        -1.214389
 C         3.045181         1.511122        -2.219313
 C         3.087046         0.227408        -1.442870
 O         3.750657        -1.012210        -1.655223
 C         1.758160         0.465833        -0.772904
 C         3.044572         0.759583        -0.006779
 O         3.574102        -0.090865         0.971750
 C         2.804486         2.268684         0.189580
 H         0.081404         2.811338        -1.148842
 H         1.259118         3.782722        -2.248853
 H         0.421144         2.141967        -2.666507
 H         2.621956         1.335527        -3.172476
 H         3.949969         2.085526        -2.331086
 H         4.291838        -1.117075        -0.874235
 H         0.840194        -0.199741        -0.413003
 H         2.864632        -0.098933         1.640985
 H         2.014615         2.321123         0.879866
 H         3.748686         2.780965         0.056675
