19
Iteration:  4646charge 0 multiplicity 1
 C         0.976612         2.881233        -1.837384
 C         1.995886         1.918388        -1.310236
 C         3.097618         1.432252        -2.330673
 C         3.120562         0.246556        -1.330574
 O         3.763685        -0.913486        -1.588709
 C         1.735850         0.361087        -0.838263
 C         2.891573         0.737980         0.080694
 O         3.646655        -0.065548         1.082579
 C         2.627765         2.173286         0.056709
 H         0.315282         2.976101        -0.981623
 H         1.384235         3.949912        -1.849640
 H         0.408311         2.796013        -2.744133
 H         2.779455         1.142895        -3.339524
 H         3.842431         2.147707        -2.534333
 H         4.688744        -0.902802        -1.173541
 H         0.969950        -0.405323        -0.843670
 H         2.952344        -0.688185         1.453566
 H         1.708311         2.510177         0.652708
 H         3.279205         3.053386         0.193096
