19
Iteration:  1556charge 0 multiplicity 1
 C         0.892799         2.846620        -1.741053
 C         2.048949         1.962898        -1.219693
 C         3.047043         1.384317        -2.289126
 C         3.112132         0.210793        -1.450373
 O         3.864237        -0.991213        -1.711801
 C         1.736018         0.419539        -0.778506
 C         3.019529         0.744952        -0.022513
 O         3.405952         0.023771         1.063273
 C         2.701797         2.202387         0.134123
 H         0.288213         3.209338        -0.916838
 H         1.342240         3.792434        -2.017184
 H         0.401804         2.380212        -2.635389
 H         2.508126         0.979644        -3.180945
 H         3.930963         1.898725        -2.713577
 H         4.022528        -1.459314        -0.840667
 H         0.891625        -0.067644        -0.419370
 H         4.415948         0.078280         1.033564
 H         1.927843         2.403305         0.900827
 H         3.484264         2.933933         0.183763
