19
Iteration:  1593charge 0 multiplicity 1
 C         0.846519         2.894384        -1.873114
 C         1.898535         1.935757        -1.320143
 C         3.122284         1.584875        -2.260219
 C         3.145584         0.251327        -1.334544
 O         3.653724        -0.925426        -1.670634
 C         1.763143         0.385838        -0.724138
 C         2.958397         0.628502         0.138966
 O         3.652821        -0.152952         1.073228
 C         2.746314         2.184636        -0.006012
 H        -0.115680         2.949122        -1.346193
 H         1.391651         3.843459        -2.106052
 H         0.509901         2.614437        -2.838288
 H         2.590502         1.191350        -3.263693
 H         4.166676         2.051842        -2.395945
 H         4.236082        -1.172374        -0.896735
 H         1.015518        -0.517760        -0.770465
 H         4.145989         0.246211         1.834713
 H         2.054078         2.638028         0.697884
 H         3.565153         2.947645        -0.188791
