19
Iteration:  3628
 C         0.823168         2.889551        -1.741742
 C         1.953062         1.882748        -1.323597
 C         2.980148         1.450421        -2.323281
 C         3.236099         0.239452        -1.352179
 O         3.904878        -0.979323        -1.692112
 C         1.803688         0.424447        -0.754515
 C         3.002808         0.731851         0.037617
 O         3.347976        -0.140070         1.133939
 C         2.807365         2.317161         0.006302
 H         0.261303         3.274823        -0.920528
 H         1.143325         3.883170        -2.182352
 H         0.175557         2.450883        -2.482914
 H         2.780197         0.952151        -3.284898
 H         3.918616         1.933894        -2.522204
 H         3.538356        -1.664693        -1.107653
 H         0.824229         0.039934        -0.590704
 H         4.237430        -0.014334         1.531464
 H         2.172446         2.896462         0.580254
 H         3.864445         2.852879        -0.056545
