19
Iteration:  1092charge 0 multiplicity 1
 C         0.881946         2.861635        -1.787213
 C         1.952190         1.930536        -1.361502
 C         3.038422         1.423648        -2.385905
 C         3.117695         0.321742        -1.337389
 O         3.861988        -0.973594        -1.537629
 C         1.719212         0.448284        -0.755409
 C         2.900136         0.688140         0.104832
 O         3.643169        -0.137351         0.979971
 C         2.682627         2.212528         0.057266
 H         0.206105         3.252207        -0.952284
 H         1.430030         3.813811        -2.074948
 H         0.290244         2.565698        -2.648630
 H         2.661468         0.991700        -3.368106
 H         3.802354         2.070887        -2.634559
 H         4.680528        -0.811996        -0.960479
 H         0.829970        -0.239289        -0.748557
 H         3.377789        -0.073479         1.945960
 H         1.757921         2.593300         0.649191
 H         3.617563         2.893515        -0.085910
