19
Iteration:  4900charge 0 multiplicity 1
 C         0.881035         2.856569        -1.755818
 C         1.902837         1.943914        -1.268011
 C         3.049166         1.524748        -2.315942
 C         3.235595         0.259105        -1.412889
 O         3.837514        -1.025772        -1.648278
 C         1.819872         0.393661        -0.791737
 C         2.979313         0.734076         0.029369
 O         3.482319        -0.025956         1.140768
 C         2.769363         2.206164        -0.000441
 H         0.020193         2.981116        -1.013162
 H         1.152551         3.792260        -2.269207
 H         0.370520         2.220630        -2.516250
 H         2.607255         1.065495        -3.276585
 H         3.715131         2.393784        -2.650494
 H         4.123645        -1.361154        -0.803018
 H         0.956350        -0.178918        -0.739169
 H         2.808477        -0.599494         1.500194
 H         2.155244         2.569280         0.844162
 H         3.575844         2.855362        -0.153239
