19
Iteration:  4472
 C         0.915202         2.804973        -1.872994
 C         1.969859         1.888246        -1.291202
 C         3.159116         1.521196        -2.228962
 C         3.099139         0.207928        -1.430624
 O         3.864688        -0.896636        -1.504295
 C         1.748537         0.401802        -0.807421
 C         2.979095         0.671709         0.025968
 O         3.483744        -0.024520         1.118862
 C         2.640260         2.234433         0.071815
 H        -0.006939         2.943350        -1.234997
 H         1.411925         3.792455        -2.102377
 H         0.454689         2.502803        -2.809101
 H         2.734416         1.175181        -3.161484
 H         3.824390         2.438385        -2.315487
 H         3.797815        -1.285178        -2.356940
 H         0.808259        -0.201477        -0.690384
 H         4.116390        -0.698955         0.816533
 H         1.885915         2.321613         0.894155
 H         3.505483         2.917191         0.159447
