19
Iteration:  2995charge 0 multiplicity 1
 C         0.887589         2.897672        -1.633026
 C         1.977732         1.856628        -1.359048
 C         3.045602         1.380414        -2.387343
 C         3.262435         0.272711        -1.339201
 O         3.738415        -1.046955        -1.747015
 C         1.775924         0.482760        -0.801342
 C         2.951893         0.769356         0.165989
 O         3.427283        -0.034991         1.210089
 C         2.823641         2.265706        -0.004390
 H         0.381047         3.004767        -0.715560
 H         1.284921         3.921355        -1.932212
 H         0.317552         2.677674        -2.548636
 H         2.254116         1.110734        -3.131820
 H         4.004321         1.999176        -2.789810
 H         4.702686        -1.188412        -1.571729
 H         0.872948        -0.140506        -0.854389
 H         3.429436        -0.860618         0.740093
 H         2.016060         2.645102         0.543393
 H         3.624482         2.965223        -0.221299
