19
Iteration:  1113charge 0 multiplicity 1
 C         0.886076         2.872032        -1.856377
 C         1.949797         1.932123        -1.264280
 C         3.033729         1.394459        -2.289888
 C         3.135001         0.254423        -1.385528
 O         3.751218        -0.997383        -1.592040
 C         1.805960         0.420613        -0.845162
 C         3.009888         0.759843         0.099752
 O         3.675993        -0.077102         1.051585
 C         2.644444         2.273097         0.051854
 H         0.092637         2.855757        -1.059766
 H         1.192732         3.920384        -2.024778
 H         0.427346         2.401324        -2.732553
 H         2.561556         1.217761        -3.284243
 H         3.874980         1.982787        -2.536023
 H         4.551418        -0.938521        -1.079136
 H         0.867155        -0.159389        -0.702600
 H         2.956628        -0.491447         1.522374
 H         1.808553         2.355311         0.860232
 H         3.500709         3.094411         0.174764
