19
Iteration:   677charge 0 multiplicity 1
 C         0.800221         2.873517        -1.729335
 C         1.903353         1.910699        -1.344218
 C         2.965819         1.580679        -2.349469
 C         3.211125         0.238296        -1.440782
 O         3.874735        -1.030473        -1.520903
 C         1.762609         0.462427        -0.862039
 C         2.959666         0.690659         0.063631
 O         3.507480        -0.068354         1.049736
 C         2.868622         2.180508         0.016463
 H         0.201031         3.057991        -0.798773
 H         1.275189         3.923031        -1.906201
 H         0.202868         2.341869        -2.501148
 H         2.594685         1.102320        -3.288903
 H         3.843749         2.210547        -2.360856
 H         4.454026        -1.322799        -0.778533
 H         0.926567        -0.243560        -0.854571
 H         2.952629        -0.134585         1.878900
 H         2.207057         2.608539         0.709073
 H         3.812454         2.721594        -0.200218
