19
Iteration:  4220charge 0 multiplicity 1
 C         0.914203         2.826956        -1.750631
 C         1.913987         1.896173        -1.304211
 C         3.089679         1.455813        -2.252029
 C         3.166626         0.236933        -1.392869
 O         3.899920        -0.947055        -1.566023
 C         1.779493         0.443664        -0.834243
 C         2.900175         0.714401         0.075139
 O         3.328214        -0.061587         1.133424
 C         2.825172         2.217750         0.039237
 H         0.037825         2.865980        -1.124194
 H         1.399706         3.801926        -2.002696
 H         0.496320         2.510896        -2.696324
 H         2.656112         1.065908        -3.215884
 H         3.927659         2.095128        -2.589747
 H         3.802797        -1.265592        -2.520285
 H         0.918541        -0.324796        -0.814961
 H         4.297922         0.228005         1.206804
 H         2.354901         2.863824         0.781244
 H         3.619112         2.721085        -0.432112
