19
Iteration:  1668
 C         0.865659         2.873489        -1.592093
 C         1.928499         1.934162        -1.279705
 C         3.032210         1.388889        -2.362920
 C         3.296263         0.264375        -1.321477
 O         3.828995        -0.957399        -1.718119
 C         1.739193         0.413720        -0.823226
 C         2.964668         0.735627         0.072462
 O         3.443636        -0.038930         1.163540
 C         2.809261         2.224901        -0.124252
 H         0.337597         3.302578        -0.717092
 H         1.228076         3.814852        -2.046968
 H         0.223890         2.600584        -2.413666
 H         2.572088         0.837839        -3.255344
 H         3.732159         2.172228        -2.572083
 H         4.146385        -1.268486        -0.876324
 H         0.991466        -0.410536        -0.883959
 H         2.954440        -0.856913         1.075677
 H         2.345697         2.885954         0.597448
 H         3.719667         2.770810        -0.241343
