19
Iteration:  1794charge 0 multiplicity 1
 C         0.861488         2.850367        -1.735500
 C         1.952880         1.998144        -1.240141
 C         3.168040         1.464906        -2.165961
 C         3.134611         0.164306        -1.434528
 O         3.752956        -1.055616        -1.667298
 C         1.750609         0.410977        -0.816454
 C         2.998839         0.716713        -0.000305
 O         3.567688        -0.025558         0.971366
 C         2.701273         2.281223         0.030227
 H        -0.058477         2.940787        -1.171740
 H         1.234226         3.868848        -1.719524
 H         0.430285         2.674360        -2.734622
 H         2.871273         1.299250        -3.198935
 H         4.157104         1.987196        -2.334275
 H         4.111819        -1.277975        -0.781160
 H         0.920654        -0.295018        -0.453781
 H         2.978680        -0.051090         1.784422
 H         2.129121         2.525846         0.895478
 H         3.525113         2.910130        -0.192607
