19
Iteration:    85
 C         0.871958         2.798741        -1.823651
 C         1.955672         1.923167        -1.187671
 C         3.031037         1.516495        -2.293562
 C         3.139888         0.208161        -1.452530
 O         3.811396        -1.022730        -1.760374
 C         1.741674         0.449339        -0.734127
 C         2.993004         0.721454         0.044050
 O         3.510833         0.051563         1.159496
 C         2.818278         2.182165         0.043999
 H         0.015422         2.783658        -1.074532
 H         1.181847         3.827166        -2.078366
 H         0.463648         2.374917        -2.779788
 H         2.504396         1.215209        -3.188239
 H         3.906041         2.163577        -2.596842
 H         4.503666        -1.191059        -1.086162
 H         0.868617         0.021000        -0.467593
 H         3.122155        -0.869476         1.293922
 H         2.256551         2.590356         0.987696
 H         3.645691         2.958850         0.060883
