19
Iteration:  1450charge 0 multiplicity 1
 C         0.859893         2.851002        -1.852058
 C         1.949578         1.879747        -1.329552
 C         3.053393         1.463164        -2.224156
 C         3.213747         0.258047        -1.347056
 O         3.687623        -1.010594        -1.612485
 C         1.719729         0.371241        -0.804965
 C         2.936057         0.707406         0.149096
 O         3.599992         0.027614         1.122625
 C         2.782840         2.251229         0.065098
 H        -0.004647         2.859404        -1.126506
 H         1.283453         3.867672        -1.980606
 H         0.279877         2.710292        -2.762253
 H         2.747116         1.232248        -3.265017
 H         3.930469         2.101040        -2.316647
 H         4.072792        -0.990695        -2.530501
 H         0.992984        -0.384600        -0.790236
 H         4.155261        -0.565342         0.542492
 H         2.217364         2.589421         0.974037
 H         3.775028         2.853013        -0.149777
