19
Iteration:  4562charge 0 multiplicity 1
 C         0.801568         2.858835        -1.768126
 C         2.003108         2.015513        -1.367314
 C         3.082175         1.341950        -2.301643
 C         3.229635         0.206716        -1.380629
 O         3.932189        -0.904933        -1.699853
 C         1.797423         0.499470        -0.823164
 C         2.918154         0.748312         0.060415
 O         3.295614        -0.216094         1.165010
 C         2.781238         2.269118         0.045316
 H         0.137969         2.811925        -0.794675
 H         0.972289         3.914466        -2.043943
 H         0.324646         2.221301        -2.540527
 H         2.689611         0.934893        -3.240290
 H         3.920928         2.182473        -2.425888
 H         4.474672        -1.158251        -0.965223
 H         0.971905        -0.141848        -0.719017
 H         3.960496         0.249872         1.668529
 H         2.047506         2.718156         0.714227
 H         3.730558         2.847074        -0.061646
