19
Iteration:  3867
 C         0.888829         2.884006        -1.864247
 C         1.943759         1.900770        -1.331764
 C         3.123467         1.408197        -2.222744
 C         3.084097         0.195508        -1.333440
 O         3.815570        -0.908991        -1.717369
 C         1.643576         0.432839        -0.769693
 C         2.976052         0.660217         0.078632
 O         3.547317        -0.053290         1.119422
 C         2.774354         2.254090         0.024969
 H         0.063879         2.940474        -1.209491
 H         1.420861         3.855974        -1.979729
 H         0.394415         2.638370        -2.802796
 H         2.732140         1.198038        -3.263956
 H         4.044269         1.987205        -2.098520
 H         3.889244        -1.626906        -1.092117
 H         0.755877        -0.088268        -0.478143
 H         4.429866         0.144496         1.416751
 H         2.022593         2.374824         0.826296
 H         3.468170         3.070346        -0.117563
