19
Iteration:  1976charge 0 multiplicity 1
 C         0.885844         2.866221        -1.739616
 C         1.991545         1.963006        -1.337681
 C         3.001445         1.417394        -2.337840
 C         3.160825         0.293334        -1.395742
 O         3.783295        -0.908133        -1.648704
 C         1.757361         0.433509        -0.804784
 C         2.921055         0.660595         0.089792
 O         3.577906        -0.099391         1.087968
 C         2.731729         2.195877         0.019299
 H         0.141796         2.804034        -0.970544
 H         1.370128         3.823334        -1.588796
 H         0.590890         2.586413        -2.695214
 H         2.633192         1.008447        -3.308974
 H         3.851466         2.045632        -2.563676
 H         4.441671        -1.295622        -1.001556
 H         0.890585        -0.313166        -0.903207
 H         3.095677        -0.014383         1.890396
 H         2.386444         2.671413         0.957942
 H         3.659500         2.772815        -0.154280
