19
Iteration:   887charge 0 multiplicity 1
 C         0.870789         2.798981        -1.768929
 C         1.942247         1.916011        -1.280308
 C         3.014846         1.325507        -2.361576
 C         3.102822         0.176575        -1.351297
 O         3.936479        -0.836008        -1.759231
 C         1.708100         0.456319        -0.793691
 C         2.959457         0.737561         0.130766
 O         3.487772        -0.065657         1.158522
 C         2.831183         2.251753         0.002029
 H         0.192372         3.132688        -0.949182
 H         1.397046         3.825067        -1.951212
 H         0.356596         2.409795        -2.622019
 H         2.614107         1.091710        -3.400097
 H         4.003487         1.888561        -2.290599
 H         3.824160        -1.635463        -1.180713
 H         0.887834        -0.107849        -0.810936
 H         3.072608         0.204870         2.016875
 H         2.123095         2.688988         0.764688
 H         3.831853         2.902919        -0.275989
