19
Iteration:  2442
 C         0.969794         2.918631        -1.780486
 C         1.923090         1.918376        -1.194436
 C         2.969730         1.416538        -2.280872
 C         3.102945         0.228040        -1.458928
 O         3.742681        -1.047033        -1.692270
 C         1.712069         0.408843        -0.808885
 C         3.068069         0.691556        -0.015548
 O         3.572650         0.075493         1.145997
 C         2.803943         2.175590         0.071973
 H         0.058747         3.007229        -1.132138
 H         1.284081         3.982843        -1.924432
 H         0.643333         2.415673        -2.790622
 H         2.546838         1.191499        -3.245908
 H         3.959298         2.058970        -2.447521
 H         4.597240        -0.940368        -1.162807
 H         0.840480        -0.238029        -0.935714
 H         2.820665        -0.542596         1.383394
 H         2.312289         2.457866         0.997624
 H         3.536816         2.986909         0.221278
