19
Iteration:  2788
 C         0.806421         2.887915        -1.722880
 C         2.003460         1.940796        -1.300806
 C         3.089070         1.449024        -2.306397
 C         3.127583         0.249972        -1.394579
 O         3.749820        -1.048991        -1.644057
 C         1.727847         0.473652        -0.829085
 C         2.950201         0.653785         0.092937
 O         3.594528        -0.075185         1.089944
 C         2.854890         2.281464         0.011332
 H         0.142517         2.922605        -0.871613
 H         1.135973         3.995016        -1.846119
 H         0.309033         2.584276        -2.653586
 H         2.589864         1.212295        -3.320410
 H         3.881923         2.085372        -2.641179
 H         4.389083        -1.234920        -0.897628
 H         0.757011        -0.119655        -0.979686
 H         2.898078        -0.285219         1.719475
 H         2.088746         2.735629         0.636838
 H         3.829818         2.774038        -0.269464
