19
Iteration:  2181charge 0 multiplicity 1
 C         0.805305         2.984439        -1.712540
 C         1.972843         1.921134        -1.271806
 C         3.042755         1.271090        -2.330800
 C         3.221632         0.244765        -1.271919
 O         3.863344        -0.898597        -1.713248
 C         1.744989         0.439862        -0.735975
 C         2.987465         0.740895         0.029606
 O         3.459779        -0.213894         1.059949
 C         2.794298         2.277604        -0.039765
 H         0.247417         3.276271        -0.793810
 H         1.157237         3.954916        -2.135779
 H         0.261143         2.741942        -2.628585
 H         2.492953         0.997856        -3.200745
 H         3.880895         1.896218        -2.603096
 H         4.456159        -1.055893        -0.897650
 H         1.004013        -0.247994        -0.699775
 H         2.818859        -0.204322         1.773470
 H         2.274952         2.891015         0.635398
 H         3.648396         2.911016        -0.383972
