19
Iteration:   615charge 0 multiplicity 1
 C         0.930312         2.867948        -1.817110
 C         1.884450         1.954627        -1.221091
 C         3.062768         1.487163        -2.208198
 C         3.131522         0.150095        -1.411168
 O         3.787146        -1.033025        -1.767936
 C         1.744034         0.406896        -0.824776
 C         3.030567         0.717091         0.043562
 O         3.637241         0.013933         1.102914
 C         2.658042         2.220797         0.053617
 H         0.010962         3.013918        -1.227007
 H         1.251556         3.905006        -2.090472
 H         0.576591         2.426547        -2.742796
 H         2.603944         1.349647        -3.204626
 H         4.161731         1.707730        -2.144667
 H         4.393545        -1.047103        -0.978345
 H         0.840252        -0.205385        -0.476378
 H         2.950555        -0.052283         1.823438
 H         1.964965         2.435749         0.943268
 H         3.400918         3.040390        -0.031663
