19
Iteration:  3219charge 0 multiplicity 1
 C         0.813661         2.888934        -1.831784
 C         2.075826         2.042982        -1.303264
 C         3.149911         1.419550        -2.258201
 C         3.171945         0.242999        -1.405403
 O         3.733568        -0.995955        -1.698619
 C         1.671268         0.395296        -0.811316
 C         2.891705         0.687386         0.122249
 O         3.636920        -0.081716         1.061272
 C         2.757018         2.262406         0.078733
 H         0.071102         2.856109        -0.964633
 H         0.980299         3.880967        -2.131705
 H         0.184636         2.317746        -2.485497
 H         2.696997         1.100866        -3.280600
 H         4.118864         1.967587        -2.456908
 H         4.432758        -1.039846        -0.975454
 H         0.697096        -0.256647        -0.784841
 H         2.983513        -0.292133         1.790892
 H         2.050954         2.646724         0.732545
 H         3.726195         2.714817         0.271537
