19
Iteration:  2317charge 0 multiplicity 1
 C         0.883135         2.921383        -1.697541
 C         1.901846         1.944143        -1.311404
 C         3.033644         1.370171        -2.278633
 C         3.129797         0.136781        -1.433759
 O         3.843520        -1.000112        -1.769816
 C         1.765711         0.420613        -0.756085
 C         3.041760         0.740678         0.123686
 O         3.476396        -0.088686         1.130473
 C         2.793593         2.322109        -0.028500
 H         0.075109         2.874478        -0.959183
 H         1.311519         3.973207        -1.746058
 H         0.634413         2.847368        -2.695156
 H         2.698908         1.230017        -3.342526
 H         3.938483         1.920430        -2.449604
 H         4.606698        -1.136282        -1.114700
 H         0.853161        -0.103289        -0.561211
 H         2.744568        -0.103544         1.832852
 H         2.071028         2.569465         0.667109
 H         3.594996         2.998006        -0.203303
