19
Iteration:  4847charge 0 multiplicity 1
 C         0.803377         2.768012        -1.758066
 C         1.950806         1.983318        -1.371857
 C         3.175000         1.482485        -2.171680
 C         3.199734         0.165640        -1.375248
 O         3.776875        -1.042268        -1.711388
 C         1.779899         0.398489        -0.827717
 C         2.981422         0.754782         0.041069
 O         3.421871        -0.011524         1.177182
 C         2.802048         2.253116        -0.046401
 H         0.084601         2.648911        -0.927455
 H         1.054752         3.789993        -1.788875
 H         0.144494         2.531401        -2.590960
 H         2.918029         1.344441        -3.198240
 H         4.045105         2.070638        -1.976294
 H         4.424739        -0.905183        -2.392257
 H         0.926454        -0.176870        -0.585330
 H         3.392642         0.480231         2.000735
 H         1.995071         2.485545         0.678342
 H         3.764733         2.841327         0.060949
