19
Iteration:  4243
 C         0.853006         2.856363        -1.696929
 C         1.984747         1.954686        -1.405885
 C         3.074486         1.440068        -2.317824
 C         3.153698         0.194709        -1.381367
 O         3.961928        -0.951242        -1.567975
 C         1.748961         0.405117        -0.828245
 C         2.983579         0.711157         0.014143
 O         3.300402         0.004522         1.233475
 C         2.826645         2.198667         0.000415
 H         0.131059         2.925758        -0.893681
 H         1.273003         3.797894        -2.065484
 H         0.280206         2.535465        -2.534172
 H         2.720487         1.389333        -3.381795
 H         4.060886         1.877069        -2.394304
 H         3.736435        -1.174847        -2.486167
 H         0.783027        -0.141530        -0.547492
 H         3.916469        -0.681143         0.981636
 H         2.045822         2.428033         0.722267
 H         3.594262         2.991927        -0.029565
