19
Iteration:   243
 C         0.842160         2.866904        -1.726181
 C         1.995706         1.950676        -1.226299
 C         3.044261         1.414711        -2.293838
 C         3.111115         0.178404        -1.464360
 O         3.814911        -1.013738        -1.666957
 C         1.807370         0.417261        -0.877609
 C         2.967375         0.755419         0.037672
 O         3.558966         0.000689         1.083385
 C         2.764475         2.251540         0.093178
 H        -0.000029         3.005153        -1.010020
 H         1.222021         3.907010        -2.044561
 H         0.370988         2.411882        -2.640648
 H         2.504741         1.235690        -3.283544
 H         3.968778         2.021644        -2.451732
 H         4.331885        -1.103997        -0.865927
 H         0.862030        -0.317029        -0.687133
 H         2.923254        -0.603901         1.579482
 H         2.107924         2.685038         0.903022
 H         3.583585         2.875783        -0.059853
