19
Iteration:  3812charge 0 multiplicity 1
 C         0.756360         2.822478        -1.768830
 C         2.056174         1.995586        -1.318732
 C         3.063299         1.435954        -2.352034
 C         3.223386         0.246017        -1.411903
 O         3.814496        -1.003735        -1.707825
 C         1.815350         0.554665        -0.754971
 C         3.043938         0.685721         0.078460
 O         3.347165        -0.036216         1.163463
 C         2.775012         2.158524         0.029793
 H         0.198492         3.190110        -0.956104
 H         1.083273         3.773429        -2.239699
 H         0.242751         2.145263        -2.444033
 H         2.637596         1.186456        -3.361359
 H         4.027390         1.921489        -2.567975
 H         3.803656        -1.415534        -0.809825
 H         1.007437        -0.214024        -0.696716
 H         4.256923        -0.112143         1.450147
 H         2.029860         2.458393         0.771766
 H         3.560572         2.847861         0.156419
