19
Iteration:  4831
 C         0.816833         2.860448        -1.773975
 C         1.940183         1.855782        -1.217853
 C         3.145755         1.468397        -2.258927
 C         3.172297         0.184829        -1.388160
 O         3.813179        -1.049222        -1.654667
 C         1.803059         0.384817        -0.848307
 C         2.971239         0.702516         0.032827
 O         3.436363         0.035578         1.102421
 C         2.744566         2.251461         0.099077
 H        -0.122535         2.877370        -1.151200
 H         1.361566         3.887020        -1.950310
 H         0.580176         2.476761        -2.792083
 H         2.837339         1.398100        -3.402578
 H         4.089513         2.152645        -2.332314
 H         4.249548        -1.007758        -2.538357
 H         0.962570        -0.364014        -0.798759
 H         3.347805         0.530938         1.962281
 H         2.313608         2.761624         0.989673
 H         3.496732         2.923383        -0.261388
