19
Iteration:  3125
 C         0.901826         2.907655        -1.665645
 C         1.908997         1.917135        -1.291104
 C         3.096440         1.390673        -2.324621
 C         3.100255         0.214394        -1.394520
 O         3.890595        -0.882912        -1.615882
 C         1.723875         0.369630        -0.775149
 C         2.866724         0.746096         0.068153
 O         3.489941        -0.167505         0.998017
 C         2.843519         2.252112        -0.066235
 H         0.117851         2.978692        -0.919131
 H         1.419811         3.907915        -1.819023
 H         0.300710         2.575524        -2.536683
 H         2.892820         1.163617        -3.400942
 H         4.109229         1.908981        -2.329854
 H         4.054434        -1.263408        -0.743275
 H         0.707611        -0.128118        -0.702239
 H         3.318947         0.298695         1.838302
 H         2.112363         2.898754         0.609041
 H         3.818006         2.813293        -0.111864
