19
Iteration:  2217charge 0 multiplicity 1
 C         0.887317         2.779018        -1.770817
 C         2.021836         2.030482        -1.232950
 C         3.003767         1.499670        -2.299196
 C         3.152482         0.202933        -1.470322
 O         3.780340        -0.957291        -1.626588
 C         1.763583         0.416267        -0.860640
 C         2.970116         0.713692         0.043620
 O         3.544345        -0.053253         1.075335
 C         2.825489         2.195023         0.067301
 H         0.147526         3.201049        -1.035357
 H         1.405150         3.691392        -2.253379
 H         0.212055         2.154216        -2.355930
 H         2.426353         1.384112        -3.280205
 H         3.948919         2.070592        -2.450701
 H         4.043936        -1.501506        -0.840722
 H         0.737807         0.087280        -0.512547
 H         2.711797        -0.279086         1.529365
 H         2.207567         2.446196         0.920275
 H         3.717098         2.797389        -0.013419
