19
Iteration:  1894
 C         0.850507         2.894317        -1.671457
 C         1.952790         1.911846        -1.352400
 C         3.131215         1.469247        -2.283276
 C         3.237147         0.240839        -1.366754
 O         3.751999        -0.986024        -1.691196
 C         1.721707         0.438536        -0.861864
 C         2.898422         0.750166         0.139747
 O         3.601496        -0.088277         1.037264
 C         2.752246         2.233364         0.016719
 H         0.224715         3.093096        -0.763598
 H         1.125191         3.726624        -2.310819
 H         0.032500         2.605197        -2.419527
 H         2.581322         0.989125        -3.103362
 H         4.111425         2.071304        -2.486306
 H         4.082351        -1.381854        -0.822434
 H         1.194985        -0.377725        -1.018907
 H         3.001125        -0.143907         1.819948
 H         2.032898         2.564042         0.729796
 H         3.674305         2.711532        -0.000122
