19
Iteration:   340
 C         0.914866         2.840930        -1.739851
 C         2.022817         1.986845        -1.260988
 C         2.986110         1.333910        -2.393767
 C         3.120534         0.237286        -1.385874
 O         3.899059        -0.871088        -1.753301
 C         1.740430         0.481866        -0.821755
 C         2.879382         0.696946         0.100384
 O         3.575653        -0.036021         1.134451
 C         2.771020         2.214103         0.102736
 H         0.119492         2.887355        -1.030241
 H         1.122993         3.846219        -2.080587
 H         0.420375         2.393455        -2.597941
 H         2.251829         0.931994        -3.053003
 H         3.786707         1.791375        -2.896298
 H         4.127495        -1.294807        -0.874915
 H         0.764681        -0.135291        -0.879227
 H         2.986302        -0.591191         1.731341
 H         2.055394         2.497748         0.943581
 H         3.798794         2.621558         0.041378
