19
Iteration:  3064
 C         0.878537         2.844935        -1.801714
 C         1.973625         1.918578        -1.315523
 C         3.103570         1.472062        -2.267042
 C         3.117439         0.231702        -1.409314
 O         3.673173        -1.005616        -1.734070
 C         1.761152         0.386838        -0.825018
 C         2.961251         0.778815         0.181534
 O         3.610673        -0.044134         1.098391
 C         2.753778         2.296451         0.075566
 H         0.339220         2.963582        -0.828584
 H         1.259840         3.811199        -2.106950
 H         0.342563         2.493818        -2.695287
 H         2.702418         1.008951        -3.195905
 H         4.175128         1.787469        -2.155685
 H         4.592127        -1.037281        -1.309967
 H         0.880825        -0.212424        -0.777397
 H         3.026402        -0.768982         1.342536
 H         2.015716         2.781910         0.643091
 H         3.768767         2.745906         0.207286
