19
Iteration:  4556charge 0 multiplicity 1
 C         0.813788         2.841622        -1.784167
 C         1.963736         1.990730        -1.291190
 C         3.062259         1.358324        -2.295815
 C         3.216227         0.235208        -1.398529
 O         3.941232        -0.941047        -1.701580
 C         1.841412         0.492254        -0.860474
 C         2.949855         0.713981         0.125361
 O         3.259765        -0.142225         1.113286
 C         2.783379         2.266235         0.039457
 H         0.239294         2.879707        -0.904113
 H         0.946844         3.914904        -1.965456
 H         0.278082         2.359935        -2.624276
 H         2.767583         1.094729        -3.334716
 H         3.873574         1.988753        -2.430466
 H         4.446397        -1.283574        -0.895093
 H         1.030085        -0.241972        -0.647076
 H         4.054422         0.163865         1.575059
 H         2.102727         2.756865         0.771929
 H         3.710292         2.842805         0.062607
