19
Iteration:  2135
 C         0.898707         2.924244        -1.645429
 C         1.918480         1.965971        -1.258603
 C         3.061157         1.427579        -2.331902
 C         3.109760         0.211267        -1.410817
 O         3.794645        -0.962263        -1.629811
 C         1.775501         0.389119        -0.917467
 C         2.911450         0.683299        -0.011230
 O         3.608614         0.024853         1.094665
 C         2.785296         2.120667         0.017591
 H         0.091268         2.932447        -0.926995
 H         1.188654         3.918913        -1.781333
 H         0.568246         2.663460        -2.666122
 H         2.603647         1.055161        -3.191927
 H         3.983633         1.883937        -2.614855
 H         4.059657        -1.192957        -0.706893
 H         0.813322        -0.236724        -1.035952
 H         3.074451         0.063655         1.869891
 H         2.208387         2.402050         0.879402
 H         3.676803         2.770448         0.041802
