19
Iteration:  1380
 C         0.879271         2.866786        -1.742160
 C         1.934809         1.928556        -1.304575
 C         2.960616         1.413987        -2.397422
 C         3.221657         0.313101        -1.344428
 O         3.743346        -0.953135        -1.564096
 C         1.765999         0.433139        -0.831994
 C         3.071856         0.679483         0.117158
 O         3.511061        -0.074567         1.165348
 C         2.756719         2.260158        -0.065604
 H         0.343262         2.920752        -0.815671
 H         1.288240         3.842154        -2.050042
 H         0.090137         2.517264        -2.450920
 H         2.367525         0.980738        -3.326806
 H         3.788121         2.160678        -2.678633
 H         4.706044        -0.918682        -1.383427
 H         0.999657        -0.430610        -1.053641
 H         3.717882        -0.980489         0.939169
 H         2.153231         2.584594         0.802947
 H         3.620791         2.954988        -0.147973
