19
Iteration:  2707charge 0 multiplicity 1
 C         0.979433         2.867054        -1.746822
 C         1.923579         1.941776        -1.296842
 C         3.001304         1.355056        -2.317294
 C         3.203162         0.251780        -1.300750
 O         3.722777        -0.925676        -1.788004
 C         1.776304         0.471264        -0.760942
 C         2.982423         0.719842         0.121957
 O         3.571669        -0.040493         1.102838
 C         2.738896         2.189927        -0.021668
 H         0.297831         3.213295        -0.891582
 H         1.480163         3.712731        -2.250804
 H         0.229285         2.488174        -2.479594
 H         2.549112         0.919270        -3.156324
 H         3.891714         1.937345        -2.387246
 H         3.916613        -1.484033        -0.999263
 H         1.097523        -0.291791        -0.894822
 H         2.874430        -0.215537         1.781135
 H         2.281739         2.590167         0.901258
 H         3.652024         2.958905        -0.180626
