19
Iteration:  1034charge 0 multiplicity 1
 C         0.817656         2.828703        -1.683368
 C         2.014250         1.941595        -1.353065
 C         3.046188         1.346944        -2.350427
 C         3.160147         0.206066        -1.307878
 O         3.905523        -0.889565        -1.781325
 C         1.758230         0.430582        -0.822590
 C         3.036936         0.744159         0.128071
 O         3.451857        -0.017386         1.162435
 C         2.758261         2.204159        -0.051815
 H         0.309550         3.015375        -0.737570
 H         1.235625         3.768905        -2.025712
 H         0.121597         2.404899        -2.476837
 H         2.566239         0.793531        -3.147824
 H         3.949440         1.930961        -2.586061
 H         3.869639        -1.501742        -1.060740
 H         0.877460        -0.220940        -0.734718
 H         2.840224         0.203431         1.858089
 H         2.038278         2.625818         0.714856
 H         3.623489         2.994244         0.001193
