19
Iteration:  1235charge 0 multiplicity 1
 C         0.883939         2.854692        -1.801506
 C         1.948424         1.928909        -1.322056
 C         3.063912         1.418129        -2.294288
 C         3.113659         0.254228        -1.299396
 O         3.844659        -1.005334        -1.572099
 C         1.647222         0.456574        -0.839740
 C         2.874394         0.715167         0.154185
 O         3.579995        -0.018456         1.053117
 C         2.755186         2.200032         0.030628
 H         0.341781         3.088140        -0.863925
 H         1.339174         3.823229        -2.094032
 H         0.266650         2.400242        -2.525578
 H         2.508595         1.076552        -3.242836
 H         3.921563         1.967338        -2.696021
 H         4.797715        -0.670228        -1.493478
 H         0.861082        -0.192941        -0.667411
 H         4.220770        -0.413197         0.413757
 H         2.063380         2.594114         0.777058
 H         3.676549         2.700128        -0.209733
