19
Iteration:  2344charge 0 multiplicity 1
 C         0.882788         2.844300        -1.668188
 C         1.967334         1.980149        -1.322197
 C         3.039460         1.364097        -2.306795
 C         3.235507         0.280557        -1.325322
 O         3.795207        -0.874248        -1.703098
 C         1.704542         0.402122        -0.829721
 C         2.944944         0.695091         0.057925
 O         3.499225        -0.080697         1.110064
 C         2.842912         2.221780        -0.036052
 H         0.341919         2.961263        -0.723796
 H         1.182001         3.776870        -2.054027
 H         0.409557         2.403338        -2.633410
 H         2.674635         1.047805        -3.266966
 H         3.950955         1.975741        -2.708113
 H         3.831758        -1.606926        -1.015545
 H         0.773048        -0.240501        -0.655058
 H         2.753833        -0.215172         1.774696
 H         2.342141         2.885758         0.800870
 H         3.863230         2.764688        -0.252148
