19
Iteration:  4764
 C         0.905889         2.846535        -1.783088
 C         1.943094         1.903307        -1.284880
 C         3.014442         1.443803        -2.247781
 C         3.103151         0.234835        -1.384082
 O         3.990035        -0.931704        -1.568411
 C         1.729826         0.368907        -0.841794
 C         3.024589         0.727061         0.050757
 O         3.472765        -0.027805         1.050879
 C         2.720625         2.215052         0.004390
 H         0.457767         3.264827        -0.863159
 H         1.415424         3.838707        -2.168086
 H         0.218729         2.561877        -2.629964
 H         2.704543         1.552593        -3.362635
 H         3.873880         2.225175        -2.254598
 H         3.385006        -1.696129        -1.384927
 H         0.923224        -0.221219        -0.611745
 H         2.826217        -0.702816         1.348990
 H         2.177619         2.702563         0.801335
 H         3.563798         2.878801        -0.138350
