19
Iteration:  2285charge 0 multiplicity 1
 C         0.905633         2.900751        -1.759433
 C         1.979912         1.955017        -1.292522
 C         2.978365         1.466069        -2.340999
 C         3.215832         0.242348        -1.398644
 O         3.700702        -1.017226        -1.623059
 C         1.776900         0.385229        -0.815605
 C         2.987086         0.662576         0.041868
 O         3.564113        -0.003589         1.069271
 C         2.772347         2.172750         0.093722
 H        -0.082150         2.964618        -1.371474
 H         1.349750         3.903129        -1.672330
 H         0.584665         2.647120        -2.722530
 H         2.490160         1.214601        -3.310975
 H         3.933736         2.051369        -2.384912
 H         4.608086        -0.919364        -1.378172
 H         0.876083        -0.185781        -1.049918
 H         3.090892         0.125983         1.874356
 H         2.074995         2.357016         0.929450
 H         3.683814         2.679725         0.221728
