19
Iteration:   583
 C         0.855218         2.804502        -1.778182
 C         1.931168         1.875920        -1.309581
 C         3.043104         1.454900        -2.288837
 C         3.287636         0.389921        -1.317048
 O         3.760971        -0.953676        -1.755595
 C         1.761927         0.485519        -0.831020
 C         2.930186         0.691814         0.146828
 O         3.581534        -0.059808         1.137597
 C         2.760879         2.177798        -0.011838
 H         0.040344         3.001304        -1.084606
 H         1.200040         3.806703        -2.012315
 H         0.371942         2.370743        -2.625422
 H         2.584957         1.047179        -3.261162
 H         4.031820         2.071220        -2.673930
 H         3.814119        -1.556526        -0.985266
 H         0.950032        -0.321136        -0.833922
 H         3.006719        -0.136500         1.888881
 H         2.190236         2.602608         0.934752
 H         3.734251         2.696884        -0.168883
