19
Iteration:  3941
 C         0.769600         2.914588        -1.673057
 C         1.989891         1.964500        -1.357156
 C         3.085918         1.352385        -2.275021
 C         3.155855         0.210805        -1.380898
 O         3.954758        -1.025862        -1.666959
 C         1.714735         0.464123        -0.804383
 C         2.923450         0.733947         0.010862
 O         3.409325        -0.097843         1.105278
 C         2.822390         2.286403        -0.016844
 H         0.099644         3.053304        -0.842886
 H         1.155571         3.820503        -2.098399
 H         0.129847         2.507869        -2.476821
 H         2.639858         1.108052        -3.210914
 H         4.019103         1.928334        -2.396064
 H         4.025227        -1.513902        -0.846851
 H         0.825197        -0.104120        -0.715360
 H         3.996691         0.538793         1.518139
 H         2.140520         2.745737         0.757648
 H         3.840532         2.694864        -0.131456
