19
Iteration:  3822charge 0 multiplicity 1
 C         0.836416         2.795663        -1.788421
 C         1.937227         2.013961        -1.288159
 C         3.106191         1.434949        -2.313344
 C         3.215301         0.241956        -1.398801
 O         3.776089        -1.013769        -1.707077
 C         1.790700         0.538926        -0.831977
 C         3.110794         0.724109        -0.005058
 O         3.371738        -0.043684         1.227830
 C         2.771754         2.211651         0.064538
 H         0.156828         2.958433        -1.009689
 H         1.089058         3.671103        -2.356649
 H         0.209885         2.219087        -2.452258
 H         2.582068         0.986005        -3.168455
 H         3.860105         2.194136        -2.562858
 H         3.910811        -1.564232        -0.935053
 H         0.816695        -0.023483        -0.895239
 H         4.315535        -0.148696         1.312157
 H         2.101734         2.237911         0.939741
 H         3.609368         2.786843         0.148096
