19
Iteration:  1518
 C         0.784743         2.889524        -1.650683
 C         1.852583         1.926042        -1.306671
 C         3.058950         1.396272        -2.281027
 C         3.213065         0.209966        -1.325154
 O         3.947161        -0.890987        -1.658171
 C         1.778931         0.401010        -0.864328
 C         2.969465         0.710084         0.073895
 O         3.339936        -0.112644         1.183668
 C         2.899800         2.305455        -0.145038
 H         0.228434         3.154074        -0.724996
 H         1.306911         3.782611        -2.108208
 H        -0.003483         2.566653        -2.321371
 H         2.611066         1.073513        -3.196340
 H         3.792308         2.110809        -2.583484
 H         3.351480        -1.654684        -1.408554
 H         0.811445        -0.285217        -0.858977
 H         4.326389        -0.231772         1.194922
 H         2.614250         2.850495         0.784498
 H         3.915093         2.560351        -0.574359
