19
Iteration:  2152charge 0 multiplicity 1
 C         0.894334         2.916554        -1.650149
 C         2.010895         1.890613        -1.271345
 C         2.980918         1.443773        -2.380309
 C         3.132708         0.177032        -1.478621
 O         3.909411        -1.002027        -1.624793
 C         1.674157         0.437911        -0.782045
 C         2.987237         0.680472        -0.004197
 O         3.487548        -0.021077         1.071758
 C         2.796559         2.195175         0.022823
 H         0.160935         2.927029        -0.797863
 H         1.499558         3.898998        -1.788634
 H         0.445060         2.785683        -2.665604
 H         2.446435         1.467612        -3.413506
 H         3.843146         2.191472        -2.438980
 H         4.357399        -1.092504        -0.779543
 H         0.806392        -0.178441        -0.553118
 H         2.896949         0.174125         1.787531
 H         2.007601         2.452362         0.824865
 H         3.708505         2.763330        -0.191187
