19
Iteration:   279
 C         0.850659         2.860803        -1.726185
 C         1.940084         1.950514        -1.330619
 C         3.108370         1.421030        -2.272317
 C         3.104774         0.236906        -1.393942
 O         3.766836        -0.962748        -1.578581
 C         1.725099         0.470945        -0.935110
 C         2.943447         0.697539         0.098831
 O         3.681509        -0.132663         1.032271
 C         2.704041         2.200619         0.043149
 H         0.186386         3.074059        -0.834881
 H         1.222043         3.827115        -2.101035
 H         0.237636         2.370928        -2.495365
 H         2.664072         1.178344        -3.299921
 H         3.937237         2.197591        -2.461622
 H         4.420873        -1.009602        -0.885880
 H         0.950420        -0.115119        -1.055597
 H         3.358751         0.282047         1.896643
 H         2.043111         2.586596         0.782509
 H         3.531370         2.991657         0.002899
