19
Iteration:  3029
 C         0.889838         2.880874        -1.773903
 C         1.976192         1.890065        -1.257014
 C         3.031080         1.486858        -2.253781
 C         3.140114         0.241672        -1.431209
 O         3.703367        -1.036832        -1.743901
 C         1.753848         0.415684        -0.835566
 C         3.072908         0.674338        -0.000401
 O         3.463350         0.121659         1.243458
 C         2.876698         2.125059         0.074560
 H         0.088618         3.113881        -1.087515
 H         1.336119         3.871932        -2.048560
 H         0.178092         2.386435        -2.477660
 H         2.657743         1.371796        -3.319915
 H         4.067009         1.991554        -2.589925
 H         4.705867        -0.977482        -1.730622
 H         0.769536        -0.187077        -0.721008
 H         2.995544        -0.712939         1.377934
 H         2.162982         2.301661         0.840134
 H         3.720897         2.838156         0.113526
