19
Iteration:   155charge 0 multiplicity 1
 C         0.790458         2.904224        -1.700867
 C         1.927328         1.904421        -1.366881
 C         3.129566         1.433783        -2.270114
 C         3.125180         0.200196        -1.423008
 O         3.820264        -0.916896        -1.598859
 C         1.703701         0.381487        -0.840275
 C         2.998137         0.672726         0.021800
 O         3.564335        -0.055039         1.017435
 C         2.787665         2.221215         0.036669
 H         0.280323         3.044065        -0.730887
 H         1.257616         3.884334        -2.086855
 H         0.055557         2.575701        -2.475590
 H         2.711310         1.115236        -3.283111
 H         3.998411         2.137156        -2.239731
 H         4.248720        -1.113399        -0.782755
 H         0.772542        -0.437469        -0.715254
 H         3.472358         0.406338         1.914945
 H         2.126887         2.446173         0.895996
 H         3.620474         2.799061        -0.076059
