19
Iteration:  2292charge 0 multiplicity 1
 C         0.915172         2.925713        -1.770092
 C         1.920860         1.970195        -1.257541
 C         3.017879         1.469424        -2.292640
 C         3.172804         0.196638        -1.452292
 O         3.757265        -1.039254        -1.635324
 C         1.759835         0.434110        -0.848396
 C         3.010052         0.679722         0.049020
 O         3.526955         0.025699         1.072371
 C         2.810438         2.111032         0.104410
 H        -0.019174         2.792785        -1.135856
 H         1.236739         4.015965        -1.766846
 H         0.679935         2.740603        -2.854926
 H         2.408850         1.143423        -3.174767
 H         3.809888         2.119117        -2.684504
 H         4.703255        -0.955764        -1.361755
 H         0.924302        -0.293520        -0.563885
 H         2.918352         0.162876         1.843245
 H         2.024479         2.178370         0.858711
 H         3.723020         2.794372         0.072647
