19
Iteration:  3263charge 0 multiplicity 1
 C         0.856873         2.953791        -1.757582
 C         1.930348         1.942571        -1.338761
 C         3.034912         1.486854        -2.290322
 C         3.197543         0.232464        -1.334833
 O         3.824263        -0.984685        -1.611076
 C         1.770169         0.379625        -0.762918
 C         2.963214         0.724176         0.043279
 O         3.474964        -0.173041         1.009612
 C         2.788462         2.237016        -0.005827
 H        -0.060087         3.011646        -1.090920
 H         1.395761         3.861042        -1.849427
 H         0.382032         2.632598        -2.678778
 H         2.810357         1.164420        -3.381022
 H         3.876600         2.240433        -2.368398
 H         4.020076        -1.520639        -0.780304
 H         0.997429        -0.411591        -0.577711
 H         3.695166         0.493127         1.709925
 H         2.222283         2.542334         0.839100
 H         3.612560         2.951610        -0.224178
