19
Iteration:  3143
 C         0.922560         2.904689        -1.681754
 C         2.009780         1.926003        -1.414562
 C         3.059415         1.337127        -2.264168
 C         3.137586         0.186723        -1.276517
 O         3.914058        -0.846322        -1.682978
 C         1.588571         0.542289        -0.842274
 C         2.924302         0.672947         0.104452
 O         3.484258        -0.105730         1.039371
 C         2.795696         2.171097        -0.040932
 H         0.284185         2.903080        -0.712709
 H         1.252724         3.910852        -1.803777
 H         0.245497         2.566242        -2.463607
 H         2.579166         1.092738        -3.254713
 H         3.879969         1.880343        -2.669686
 H         4.418909        -1.251143        -0.974179
 H         0.731785        -0.204532        -0.763599
 H         3.340363         0.034570         1.979375
 H         2.252615         2.501813         0.830989
 H         3.628736         2.835655        -0.272751
