19
Iteration:  1313charge 0 multiplicity 1
 C         0.830400         2.789421        -1.712723
 C         1.994105         1.929294        -1.369193
 C         3.097174         1.405192        -2.443581
 C         3.236550         0.276685        -1.399439
 O         3.673529        -0.968312        -1.722431
 C         1.799807         0.425425        -0.787530
 C         2.959906         0.691869         0.066032
 O         3.486975         0.069068         1.317318
 C         2.772702         2.228725         0.054945
 H         0.177333         2.658022        -0.879715
 H         1.108158         3.839809        -1.926252
 H         0.263608         2.387309        -2.543311
 H         2.563880         0.922769        -3.329384
 H         3.948818         2.104506        -2.617431
 H         4.652031        -0.945075        -1.668000
 H         0.930643        -0.241772        -0.733032
 H         3.842530        -0.838683         1.104314
 H         2.161293         2.716490         0.834047
 H         3.728923         2.759681        -0.037549
