19
Iteration:  3407charge 0 multiplicity 1
 C         0.838360         2.870112        -1.792491
 C         1.901081         1.936495        -1.294280
 C         3.133954         1.426316        -2.195840
 C         3.149008         0.230415        -1.361311
 O         3.819650        -0.957305        -1.707305
 C         1.715432         0.461483        -0.844575
 C         2.992971         0.688395         0.058438
 O         3.465942        -0.044268         1.144711
 C         2.775129         2.233699         0.022822
 H        -0.140264         2.927348        -1.306475
 H         1.228478         3.863917        -2.042805
 H         0.512078         2.454544        -2.780564
 H         2.725146         1.295127        -3.256589
 H         4.079706         1.978510        -2.194932
 H         3.787021        -1.601927        -0.941689
 H         0.984436        -0.338786        -0.678318
 H         4.427923        -0.270273         0.986337
 H         2.227894         2.655808         0.866945
 H         3.760242         2.827839        -0.143996
