19
Iteration:  1966
 C         0.901746         2.831511        -1.771498
 C         1.952276         1.896383        -1.266851
 C         3.060363         1.436588        -2.278001
 C         3.167308         0.230530        -1.276772
 O         3.746355        -0.926059        -1.709966
 C         1.740797         0.450157        -0.820961
 C         2.930113         0.727815         0.138135
 O         3.597121        -0.133374         1.014680
 C         2.769459         2.275387        -0.002046
 H        -0.005736         2.743082        -1.172074
 H         1.173554         3.904037        -1.788608
 H         0.549916         2.819364        -2.773696
 H         2.576399         1.124395        -3.232348
 H         3.929417         2.018756        -2.365238
 H         4.468601        -1.133722        -1.035245
 H         0.942865        -0.336427        -0.840319
 H         3.089782        -0.153099         1.825462
 H         2.045129         2.821759         0.723271
 H         3.711734         2.885035        -0.267107
