19
Iteration:  4133charge 0 multiplicity 1
 C         0.854456         2.880945        -1.764495
 C         1.926858         1.878614        -1.338875
 C         3.160570         1.462400        -2.266092
 C         3.168033         0.238524        -1.354524
 O         3.905207        -0.931782        -1.665370
 C         1.686930         0.481027        -0.882755
 C         2.963367         0.638305         0.071502
 O         3.451464         0.011135         1.271836
 C         2.781105         2.182602         0.013129
 H         0.118049         3.063064        -0.988923
 H         1.188869         3.769344        -2.279105
 H         0.371824         2.339647        -2.524858
 H         2.924638         0.958515        -3.256675
 H         3.801388         2.302403        -2.453774
 H         3.306728        -1.709413        -1.670538
 H         0.758416        -0.029131        -1.140050
 H         3.945543        -0.797478         0.951660
 H         2.023482         2.619580         0.693606
 H         3.603824         2.997908        -0.138160
