19
Iteration:  3097charge 0 multiplicity 1
 C         0.858709         2.912129        -1.783052
 C         1.924888         2.030332        -1.247158
 C         2.988111         1.503440        -2.263450
 C         3.197821         0.238332        -1.420040
 O         3.814532        -1.066348        -1.528683
 C         1.768142         0.484151        -0.837845
 C         3.024175         0.679507        -0.028383
 O         3.562101        -0.108473         0.997392
 C         2.788161         2.181652         0.040870
 H         0.049722         3.009933        -1.034488
 H         1.209245         3.910153        -1.973997
 H         0.408604         2.396286        -2.649453
 H         2.585800         1.175791        -3.228499
 H         3.806546         2.095978        -2.686154
 H         4.061631        -1.319426        -0.634481
 H         0.931861        -0.117836        -0.746141
 H         2.800920         0.008187         1.638821
 H         2.077985         2.432361         0.774240
 H         3.690072         2.774496         0.121949
