19
Iteration:  3869charge 0 multiplicity 1
 C         0.891423         2.874712        -1.857926
 C         1.929339         1.927144        -1.323203
 C         3.109427         1.386019        -2.213680
 C         3.090554         0.199237        -1.337041
 O         3.821835        -0.908067        -1.708629
 C         1.643447         0.441785        -0.797930
 C         2.981640         0.656467         0.068616
 O         3.556498        -0.051025         1.119723
 C         2.764543         2.253780         0.025965
 H         0.007903         2.946196        -1.183781
 H         1.479009         3.862475        -1.989158
 H         0.390940         2.689769        -2.841322
 H         2.704102         1.166452        -3.260211
 H         4.039509         1.939089        -2.087565
 H         3.895934        -1.631019        -1.096954
 H         0.778841        -0.059997        -0.451171
 H         4.425210         0.079022         1.476981
 H         2.014644         2.385099         0.768539
 H         3.523164         3.024928        -0.076588
