19
Iteration:  2256
 C         0.865701         2.876948        -1.751197
 C         1.986444         1.919337        -1.363440
 C         3.154670         1.484925        -2.211638
 C         3.182745         0.248181        -1.276224
 O         3.639309        -1.016623        -1.681283
 C         1.761255         0.426296        -0.874546
 C         2.950511         0.705059         0.086137
 O         3.653989        -0.094946         1.022859
 C         2.658608         2.251157        -0.042278
 H         0.072270         3.048681        -0.961385
 H         1.247113         3.871199        -1.891498
 H         0.150053         2.455235        -2.610567
 H         2.812542         1.170944        -3.180842
 H         4.137215         2.005740        -2.206116
 H         4.488616        -1.048321        -1.141851
 H         0.909857        -0.053800        -0.565952
 H         3.359031        -0.267541         1.964565
 H         2.068326         2.628735         0.865239
 H         3.581850         2.952834         0.066659
