19
Iteration:     2
 C         0.859194         2.859527        -1.739069
 C         1.971033         1.933785        -1.291495
 C         3.056700         1.451196        -2.312406
 C         3.151350         0.224175        -1.387462
 O         3.768411        -0.999549        -1.593732
 C         1.780913         0.423922        -0.818905
 C         2.973760         0.717868         0.065333
 O         3.495469         0.004086         1.112432
 C         2.751834         2.215990         0.032248
 H         0.145562         3.012130        -0.953308
 H         1.271049         3.830553        -1.996059
 H         0.347144         2.443844        -2.591601
 H         2.587720         1.178136        -3.269193
 H         3.929477         2.058647        -2.468381
 H         4.710427        -0.890053        -1.647322
 H         0.890159        -0.235438        -0.755459
 H         3.797406        -0.852701         0.718557
 H         2.121554         2.528520         0.812013
 H         3.673891         2.865207        -0.101250
