19
Iteration:  3994
 C         0.824606         2.822637        -1.867688
 C         1.959496         1.940912        -1.289305
 C         3.022846         1.457192        -2.327140
 C         3.253065         0.315103        -1.326613
 O         3.744202        -1.068087        -1.710093
 C         1.818391         0.401780        -0.773793
 C         2.988709         0.774022         0.093280
 O         3.407615        -0.094463         1.144267
 C         2.809577         2.270651         0.039083
 H         0.207708         3.176199        -0.982683
 H         1.230927         3.815751        -2.150299
 H         0.231206         2.462123        -2.749247
 H         2.663788         1.137291        -3.230988
 H         3.814689         2.216165        -2.428656
 H         4.422422        -1.326761        -1.096950
 H         0.948734        -0.203794        -0.815393
 H         4.227539         0.081750         1.633713
 H         2.250547         2.552757         0.880225
 H         3.683833         2.822661         0.034979
