19
Iteration:  3265
 C         0.852717         2.967091        -1.761023
 C         1.932849         1.934329        -1.341839
 C         3.019932         1.488271        -2.299383
 C         3.181075         0.224202        -1.319740
 O         3.836063        -0.987646        -1.617828
 C         1.783841         0.381701        -0.777241
 C         2.967867         0.735119         0.079772
 O         3.472124        -0.178530         1.008922
 C         2.787211         2.236635        -0.022287
 H        -0.020268         3.008581        -1.098599
 H         1.393922         3.907456        -1.840197
 H         0.350442         2.654095        -2.671297
 H         2.805536         1.157191        -3.372416
 H         3.868324         2.205311        -2.335381
 H         3.984109        -1.497802        -0.788116
 H         1.097667        -0.383315        -0.590743
 H         3.717472         0.480586         1.706183
 H         2.217057         2.522108         0.847868
 H         3.586685         2.915624        -0.203113
