19
Iteration:  1120
 C         0.873853         2.827374        -1.848311
 C         1.927504         1.981653        -1.240980
 C         3.046733         1.412137        -2.254921
 C         3.161397         0.296917        -1.398337
 O         3.746874        -1.060160        -1.628881
 C         1.811502         0.412693        -0.794234
 C         3.017673         0.716784         0.010248
 O         3.621059         0.004461         1.052507
 C         2.686782         2.247715         0.095276
 H         0.045093         2.959913        -1.172733
 H         1.116116         3.864080        -1.971727
 H         0.443775         2.478254        -2.835310
 H         2.583409         1.111220        -3.168099
 H         3.986632         2.132488        -2.344270
 H         4.525183        -1.033511        -1.012051
 H         1.008204        -0.196850        -0.705582
 H         3.031679        -0.625493         1.508801
 H         1.908949         2.410617         0.755014
 H         3.404122         2.974334        -0.041146
