19
Iteration:  2340charge 0 multiplicity 1
 C         0.879659         2.838095        -1.664417
 C         1.992481         1.954166        -1.351625
 C         3.047213         1.362689        -2.320511
 C         3.241213         0.271224        -1.292617
 O         3.790590        -0.873526        -1.736004
 C         1.699964         0.400684        -0.787692
 C         2.943084         0.697415         0.093784
 O         3.485152        -0.076939         1.093122
 C         2.827553         2.259583        -0.041254
 H         0.260200         2.971887        -0.787304
 H         1.265974         3.833625        -2.005874
 H         0.401882         2.573862        -2.574234
 H         2.695925         1.026815        -3.311031
 H         3.934359         1.959004        -2.591518
 H         3.906185        -1.486886        -1.015117
 H         0.902611        -0.254665        -0.578867
 H         2.776251        -0.224568         1.706041
 H         2.332288         2.765594         0.717845
 H         3.781066         2.567572        -0.288862
