19
Iteration:  4136
 C         0.853290         2.873861        -1.793947
 C         1.920276         1.914530        -1.303576
 C         3.178407         1.454201        -2.284399
 C         3.179753         0.234156        -1.341363
 O         3.893165        -0.933979        -1.671601
 C         1.696672         0.449233        -0.877102
 C         2.947697         0.637988         0.081635
 O         3.451561         0.005031         1.267220
 C         2.772010         2.183738        -0.014675
 H         0.185556         3.120075        -0.896380
 H         1.227744         3.866423        -2.153210
 H         0.293333         2.318393        -2.582721
 H         2.866421         1.011157        -3.272064
 H         3.868696         2.402270        -2.360580
 H         3.307582        -1.676283        -1.655793
 H         0.708925        -0.128548        -1.086062
 H         4.056904        -0.675907         0.986092
 H         2.011812         2.609742         0.626627
 H         3.624537         2.974174        -0.105696
