19
Iteration:  2898charge 0 multiplicity 1
 C         0.957143         2.917759        -1.807122
 C         1.969772         1.929951        -1.259245
 C         3.060462         1.493366        -2.291593
 C         3.161410         0.160069        -1.391210
 O         3.659708        -1.112072        -1.670884
 C         1.752159         0.456952        -0.781973
 C         3.035368         0.755248         0.083878
 O         3.559560        -0.017990         1.125721
 C         2.676842         2.226927         0.048207
 H         0.264002         3.211024        -1.019260
 H         1.516559         3.863353        -2.222474
 H         0.356266         2.533362        -2.700009
 H         2.365180         1.383457        -3.132943
 H         3.761410         2.218833        -2.223493
 H         4.627012        -0.964818        -1.807745
 H         0.970030        -0.127049        -0.493534
 H         3.911359        -0.844041         0.696757
 H         2.026886         2.373781         0.935535
 H         3.569087         3.071317         0.100909
