19
Iteration:   861charge 0 multiplicity 1
 C         0.826394         2.791024        -1.763229
 C         2.029961         1.991187        -1.307055
 C         3.060285         1.333226        -2.314029
 C         3.231287         0.244595        -1.284977
 O         3.869537        -0.933289        -1.782848
 C         1.762303         0.491447        -0.755363
 C         2.962921         0.735381         0.096056
 O         3.445646        -0.058093         1.111852
 C         2.815585         2.261243        -0.023856
 H         0.133325         2.868961        -0.934469
 H         0.972463         3.814154        -1.917371
 H         0.274578         2.323741        -2.622886
 H         2.498247         1.057739        -3.289217
 H         3.894238         2.006121        -2.581595
 H         3.923720        -1.556542        -1.040206
 H         0.801472        -0.162346        -0.329906
 H         2.771801        -0.273206         1.820159
 H         2.054349         2.601166         0.713946
 H         3.620485         2.936413        -0.242662
