19
Iteration:  4090charge 0 multiplicity 1
 C         0.874751         2.810341        -1.741106
 C         1.953054         1.918610        -1.332333
 C         3.028391         1.486767        -2.344802
 C         3.191484         0.233106        -1.363437
 O         3.878593        -1.008736        -1.520706
 C         1.792488         0.460939        -0.818460
 C         3.032811         0.774400         0.045416
 O         3.417428        -0.040719         1.144348
 C         2.722474         2.230325        -0.000547
 H         0.111068         3.080173        -0.988414
 H         1.383745         3.736764        -2.020606
 H         0.433123         2.398698        -2.651664
 H         2.576052         1.315324        -3.395677
 H         3.985235         2.046467        -2.364170
 H         4.104721        -1.214292        -2.426965
 H         0.917298        -0.136073        -0.626978
 H         3.058413        -0.914901         0.942113
 H         2.135178         2.499686         0.880466
 H         3.655586         2.935116        -0.032444
