19
Iteration:  2635
 C         0.857959         2.866664        -1.659489
 C         2.043532         1.939559        -1.349506
 C         3.063954         1.399910        -2.379652
 C         3.162582         0.212025        -1.421952
 O         3.672540        -1.018321        -1.623884
 C         1.818227         0.480723        -0.782141
 C         2.961759         0.743153         0.110084
 O         3.513893        -0.117636         1.098057
 C         2.823366         2.279922        -0.024030
 H         0.103291         2.697643        -0.940899
 H         1.038714         3.970556        -1.661345
 H         0.316165         2.664879        -2.536985
 H         2.458179         1.014190        -3.285234
 H         3.934556         2.171617        -2.497556
 H         4.625506        -0.874694        -1.546834
 H         1.170645        -0.340664        -0.809349
 H         2.955395        -0.181825         1.939117
 H         2.196060         3.013328         0.578271
 H         3.681717         2.896007        -0.129859
