19
Iteration:  2465
 C         0.875113         2.899393        -1.678922
 C         1.997062         1.932530        -1.319949
 C         3.037462         1.414330        -2.312840
 C         3.180543         0.212100        -1.385035
 O         3.741962        -1.058066        -1.756677
 C         1.812505         0.420213        -0.762266
 C         2.970822         0.749547         0.077331
 O         3.520665         0.030767         1.154401
 C         2.754014         2.213080        -0.047366
 H         0.019832         2.897294        -0.940184
 H         1.271988         3.892570        -1.490834
 H         0.509448         2.906494        -2.773358
 H         2.606257         1.131855        -3.261211
 H         4.038275         1.969634        -2.529858
 H         4.403598        -1.281302        -1.099001
 H         0.982458        -0.082850        -0.373432
 H         2.941802        -0.758724         1.186946
 H         2.145657         2.682005         0.729018
 H         3.589034         2.911677        -0.050415
