19
Iteration:   502charge 0 multiplicity 1
 C         0.833677         2.946843        -1.705072
 C         1.997580         1.901928        -1.338695
 C         3.014808         1.422205        -2.434030
 C         3.166754         0.301571        -1.391049
 O         3.833655        -0.884885        -1.632557
 C         1.756167         0.351905        -0.814369
 C         2.884038         0.684871         0.194075
 O         3.607586        -0.094654         1.065681
 C         2.750653         2.211959         0.028398
 H         0.147318         3.122272        -0.862519
 H         1.428269         3.824198        -2.113053
 H         0.356038         2.532445        -2.646959
 H         2.596718         0.781831        -3.194210
 H         3.911495         2.052911        -2.724222
 H         4.150459        -1.280109        -0.786338
 H         0.903829        -0.336380        -0.781206
 H         3.032314        -0.524274         1.721865
 H         2.115405         2.772366         0.671452
 H         3.698657         2.802560        -0.071375
