19
Iteration:  2058charge 0 multiplicity 1
 C         0.838334         2.822976        -1.843949
 C         1.973139         2.021259        -1.190361
 C         3.015992         1.477305        -2.323631
 C         3.161750         0.221247        -1.367703
 O         3.819180        -0.924773        -1.678345
 C         1.743096         0.513775        -0.797575
 C         2.947072         0.634761         0.075445
 O         3.558879        -0.128737         1.068974
 C         2.876790         2.217710         0.097163
 H         0.038560         3.193286        -1.148946
 H         1.248020         3.631084        -2.468746
 H         0.224485         2.148903        -2.579285
 H         2.387357         1.318627        -3.162749
 H         3.858948         2.083309        -2.667109
 H         4.205329        -1.347263        -0.865405
 H         0.728202        -0.067219        -0.809624
 H         2.949106        -0.376505         1.796375
 H         2.077878         2.562568         0.736949
 H         3.808362         2.729534        -0.255806
