19
Iteration:  4456
 C         0.858564         2.841924        -1.860935
 C         1.876076         1.971382        -1.259757
 C         3.040780         1.535344        -2.309067
 C         3.209277         0.296547        -1.437637
 O         3.892581        -0.948936        -1.424432
 C         1.752599         0.392759        -0.853974
 C         2.992615         0.704491         0.045281
 O         3.450616        -0.029856         1.125303
 C         2.757269         2.105710         0.074152
 H        -0.090803         2.930583        -1.330776
 H         1.389849         3.730689        -2.251914
 H         0.452850         2.313233        -2.772396
 H         2.719644         1.652762        -3.433663
 H         4.048713         1.973693        -2.223583
 H         4.052160        -1.246168        -2.317678
 H         0.987690        -0.367403        -0.738672
 H         3.593108        -0.898630         0.774674
 H         2.173397         2.458252         0.960217
 H         3.575137         2.868703        -0.020334
