19
Iteration:  2538
 C         0.857780         2.944683        -1.748477
 C         1.964229         1.907796        -1.262464
 C         3.067575         1.377124        -2.310875
 C         3.129063         0.225298        -1.428818
 O         3.782834        -0.974835        -1.644612
 C         1.801445         0.498558        -0.730738
 C         3.002302         0.746715         0.029432
 O         3.554868        -0.168689         1.037543
 C         2.743242         2.243538        -0.006235
 H         0.279351         3.355396        -0.936110
 H         1.168555         3.845057        -2.327340
 H         0.126796         2.365400        -2.311755
 H         2.569205         1.138636        -3.268842
 H         3.975779         1.925436        -2.509262
 H         4.221744        -1.205113        -0.790060
 H         0.937301        -0.069674        -0.661307
 H         2.977805        -0.142907         1.853778
 H         2.227223         2.701878         0.812439
 H         3.570339         2.977809        -0.040678
