19
Iteration:  3236charge 0 multiplicity 1
 C         0.892875         2.776500        -1.755895
 C         2.028829         2.013423        -1.291841
 C         3.074817         1.475809        -2.301079
 C         3.010724         0.208057        -1.383670
 O         3.796767        -0.989475        -1.625181
 C         1.731481         0.509644        -0.878641
 C         2.902771         0.697569         0.054868
 O         3.578006        -0.065341         1.019800
 C         2.800149         2.153215         0.111148
 H         0.082614         2.818422        -1.050535
 H         1.206110         3.841804        -2.047907
 H         0.523420         2.262404        -2.699144
 H         2.707965         1.402854        -3.278550
 H         4.029381         2.003707        -2.394465
 H         4.533287        -1.188681        -0.972999
 H         0.793341         0.032603        -0.866647
 H         3.335660         0.317809         1.895023
 H         2.068196         2.423759         0.979040
 H         3.663125         2.873915         0.074545
