19
Iteration:  1117charge 0 multiplicity 1
 C         0.884241         2.845190        -1.860411
 C         1.933595         1.959810        -1.242991
 C         3.040618         1.387107        -2.260492
 C         3.138966         0.301514        -1.393902
 O         3.748508        -1.037998        -1.613541
 C         1.825267         0.415705        -0.824733
 C         3.014310         0.734318         0.046251
 O         3.649324        -0.034214         1.052562
 C         2.668573         2.267591         0.075909
 H         0.074356         2.911267        -1.098260
 H         1.126026         3.940557        -1.988871
 H         0.434661         2.450281        -2.765395
 H         2.572037         1.165911        -3.243549
 H         3.916860         2.060982        -2.430425
 H         4.555423        -0.964320        -1.022863
 H         0.881888        -0.190300        -0.696701
 H         2.974828        -0.590439         1.535963
 H         1.828956         2.345847         0.780938
 H         3.450357         3.017140         0.044554
