19
Iteration:  4066
 C         0.794237         2.960095        -1.779298
 C         1.963850         1.930368        -1.381367
 C         3.115006         1.438726        -2.275541
 C         3.165273         0.218884        -1.318837
 O         3.842555        -0.980483        -1.570378
 C         1.735527         0.376150        -0.828583
 C         2.945832         0.674992         0.064049
 O         3.489734         0.000246         1.180374
 C         2.754985         2.214232        -0.005489
 H         0.002665         3.008598        -1.054833
 H         1.137754         3.982476        -1.978506
 H         0.447043         2.542658        -2.701455
 H         2.673958         1.057077        -3.289894
 H         4.044113         1.995546        -2.451588
 H         4.459248        -1.097317        -2.279631
 H         0.896749        -0.260266        -0.842381
 H         3.700193        -0.919423         0.998872
 H         2.165736         2.631224         0.879717
 H         3.696049         2.911687        -0.107934
