19
Iteration:  2207
 C         0.897539         2.839955        -1.766026
 C         2.017389         1.914198        -1.273911
 C         2.974387         1.467657        -2.319207
 C         3.153874         0.264127        -1.347173
 O         3.813625        -0.930669        -1.677760
 C         1.760698         0.489906        -0.823547
 C         2.977734         0.697447         0.050407
 O         3.507847        -0.106822         1.088573
 C         2.881674         2.182625         0.046574
 H         0.233834         3.197231        -0.936228
 H         1.088371         3.770612        -2.444323
 H         0.326351         2.199441        -2.477361
 H         2.422410         1.034894        -3.239336
 H         3.646682         2.332035        -2.600915
 H         3.891742        -1.229046        -0.729355
 H         0.783771        -0.128893        -0.724725
 H         2.856424        -0.479047         1.675040
 H         2.167907         2.722083         0.681558
 H         3.730498         2.835697         0.031293
