19
Iteration:   879charge 0 multiplicity 1
 C         0.881809         2.795492        -1.746201
 C         1.980373         1.885771        -1.375446
 C         3.050172         1.313044        -2.330093
 C         3.052702         0.279372        -1.300909
 O         3.910147        -0.816197        -1.782167
 C         1.745697         0.452292        -0.724197
 C         2.962250         0.741994         0.114340
 O         3.483995        -0.088660         1.149339
 C         2.827998         2.268852        -0.018756
 H         0.088473         2.881229        -0.944378
 H         1.183836         3.829702        -2.078793
 H         0.235506         2.474333        -2.604391
 H         2.763710         0.849913        -3.225646
 H         4.052033         1.679034        -2.558032
 H         3.904033        -1.653915        -1.309723
 H         0.817408        -0.099797        -0.730112
 H         2.887110         0.158569         1.920624
 H         2.167304         2.689342         0.724157
 H         3.828969         2.760426         0.119518
