19
Iteration:  3708
 C         0.862512         2.935895        -1.846200
 C         1.917101         1.873852        -1.314775
 C         3.122681         1.430398        -2.280914
 C         3.155174         0.173256        -1.327701
 O         3.749950        -0.936472        -1.681320
 C         1.821764         0.407734        -0.789910
 C         2.958184         0.724590         0.126916
 O         3.519025        -0.089213         1.107744
 C         2.728605         2.259138        -0.019603
 H        -0.078875         2.956978        -1.205917
 H         1.388623         3.891609        -1.869091
 H         0.323181         2.716022        -2.784304
 H         2.662302         1.302930        -3.283104
 H         4.078041         2.030316        -2.290870
 H         3.784576        -1.595563        -0.981029
 H         1.039835        -0.307290        -0.598832
 H         4.332773         0.340449         1.413116
 H         1.945677         2.441468         0.778645
 H         3.664325         2.899022         0.039231
