19
Iteration:  2800charge 0 multiplicity 1
 C         0.853544         2.845284        -1.651319
 C         1.979840         2.022764        -1.305205
 C         2.996927         1.526439        -2.387415
 C         3.153939         0.155318        -1.421211
 O         3.744286        -1.062775        -1.583588
 C         1.779803         0.521634        -0.862905
 C         3.013462         0.720885         0.025189
 O         3.524765        -0.070622         1.149620
 C         2.848284         2.197557        -0.058090
 H         0.035335         2.837366        -0.970902
 H         1.245493         3.887850        -1.844249
 H         0.400743         2.481669        -2.607576
 H         2.488682         1.080663        -3.310424
 H         3.905534         2.097623        -2.407836
 H         4.571349        -1.001696        -1.048385
 H         0.870081        -0.095685        -0.838172
 H         2.816329        -0.501259         1.649868
 H         2.474059         2.421934         0.954305
 H         3.619306         2.972550        -0.087123
