19
Iteration:  3391
 C         0.796778         2.814234        -1.899307
 C         2.039218         2.011214        -1.236648
 C         3.107540         1.559355        -2.320171
 C         3.133046         0.170154        -1.440249
 O         3.821553        -1.040952        -1.712450
 C         1.774240         0.432173        -0.767337
 C         2.956628         0.722718         0.076012
 O         3.442771        -0.033458         1.170337
 C         2.788365         2.213193         0.102520
 H         0.266501         2.789355        -0.964490
 H         1.069249         3.869122        -2.040136
 H         0.430215         2.360520        -2.815071
 H         2.707432         1.327224        -3.253307
 H         3.977287         2.229764        -2.394904
 H         3.754680        -1.548448        -0.880665
 H         0.754949         0.102340        -0.540542
 H         4.371365        -0.294679         0.923649
 H         2.031536         2.234527         0.894897
 H         3.496010         2.971430         0.182154
