19
Iteration:   428
 C         0.846847         2.798502        -1.749523
 C         1.984983         1.938913        -1.298079
 C         3.070590         1.401417        -2.266478
 C         3.142085         0.269359        -1.348035
 O         3.691338        -0.902479        -1.701551
 C         1.716961         0.451331        -0.928783
 C         3.016364         0.703414         0.149648
 O         3.614761        -0.107261         1.126514
 C         2.757976         2.261606         0.008249
 H         0.102289         2.758922        -1.011251
 H         1.135406         3.796911        -2.030396
 H         0.523153         2.250903        -2.586160
 H         2.519197         1.089995        -3.149701
 H         4.030258         1.968050        -2.573356
 H         4.611296        -1.042116        -1.290341
 H         1.082522        -0.119116        -1.403151
 H         3.166849         0.157884         1.984630
 H         2.009850         2.527676         0.850581
 H         3.730386         2.799237         0.221576
