19
Iteration:   828charge 0 multiplicity 1
 C         0.826345         2.821927        -1.775343
 C         1.979254         1.931754        -1.250174
 C         3.057143         1.543516        -2.347294
 C         3.141096         0.273046        -1.492214
 O         3.746762        -1.016931        -1.520455
 C         1.839522         0.367110        -0.839223
 C         3.023612         0.686965        -0.002582
 O         3.518372         0.006746         1.088826
 C         2.800716         2.172955         0.022660
 H         0.117986         2.937507        -0.963782
 H         1.153593         3.770849        -2.064160
 H         0.188214         2.500255        -2.636347
 H         2.643567         1.549775        -3.422718
 H         3.991579         2.145979        -2.257911
 H         4.432512        -1.056244        -0.860434
 H         1.004436        -0.465321        -0.539154
 H         2.733499        -0.251919         1.634832
 H         2.153753         2.447719         0.906558
 H         3.570809         2.941742        -0.067868
