19
Iteration:  3744charge 0 multiplicity 1
 C         0.920341         2.963010        -1.768591
 C         1.944794         1.965066        -1.289354
 C         2.929881         1.342342        -2.377064
 C         3.085302         0.181600        -1.449505
 O         3.938681        -0.953607        -1.578196
 C         1.785344         0.394817        -0.840599
 C         2.988609         0.741523         0.054274
 O         3.423574        -0.087449         1.119999
 C         2.768908         2.192368         0.086439
 H         0.138488         3.137152        -1.060620
 H         1.386677         3.885163        -1.761043
 H         0.625403         2.753981        -2.783647
 H         2.296420         1.306956        -3.230359
 H         3.896411         1.821918        -2.685147
 H         4.371030        -1.255849        -0.764425
 H         0.858566        -0.196236        -0.717961
 H         4.369647         0.186970         1.201825
 H         1.982454         2.622284         0.759870
 H         3.436783         2.945213         0.003368
