19
Iteration:  3146
 C         0.922413         2.915262        -1.698818
 C         1.960490         1.939101        -1.387098
 C         3.053724         1.336413        -2.299475
 C         3.157705         0.173045        -1.275115
 O         3.915389        -0.858389        -1.692247
 C         1.590813         0.528668        -0.858045
 C         2.922370         0.689689         0.102868
 O         3.492669        -0.103770         1.059611
 C         2.831099         2.163426        -0.019798
 H         0.296415         2.861451        -0.782871
 H         1.270524         3.981160        -1.826270
 H         0.161764         2.560490        -2.423188
 H         2.544347         1.121237        -3.260018
 H         3.953513         1.802653        -2.717272
 H         4.472207        -1.258009        -0.957069
 H         0.676926        -0.155961        -0.827483
 H         3.249945         0.033588         1.980344
 H         2.175052         2.499530         0.924216
 H         3.650219         2.927583        -0.154141
