19
Iteration:  3168charge 0 multiplicity 1
 C         0.842899         2.968375        -1.698611
 C         2.029076         1.981928        -1.289198
 C         2.984781         1.413657        -2.353641
 C         3.137902         0.171511        -1.486991
 O         3.886030        -0.985912        -1.682786
 C         1.824928         0.406748        -0.809355
 C         2.976527         0.675324         0.064162
 O         3.465106        -0.041248         1.120637
 C         2.749801         2.183076         0.075996
 H         0.020331         3.377871        -1.084710
 H         1.486083         3.830868        -2.076919
 H         0.387879         2.486980        -2.599279
 H         2.546935         1.190809        -3.340137
 H         3.743127         2.084776        -2.706328
 H         4.207233        -1.183988        -0.809339
 H         0.999323        -0.309422        -0.597805
 H         2.814903        -0.159293         1.865676
 H         2.164422         2.661191         0.981429
 H         3.705634         2.770144        -0.054508
