19
Iteration:  1564
 C         0.914920         2.881317        -1.761021
 C         1.944798         1.923984        -1.242997
 C         3.008704         1.428319        -2.270235
 C         3.121813         0.134205        -1.378068
 O         3.828513        -1.022536        -1.716434
 C         1.766043         0.443102        -0.839996
 C         3.031373         0.775487        -0.003447
 O         3.463546        -0.003894         1.022972
 C         2.735070         2.250090         0.157517
 H         0.057379         3.065333        -1.100754
 H         1.487134         3.761236        -2.124728
 H         0.415437         2.392389        -2.653533
 H         2.557238         1.286994        -3.184548
 H         3.965430         1.905224        -2.348896
 H         4.113258        -1.454806        -0.843919
 H         0.993759        -0.113407        -0.408290
 H         4.377628         0.113843         1.411477
 H         1.865791         2.266354         0.843993
 H         3.456934         3.087589         0.172332
