19
Iteration:  2960
 C         0.842803         2.911424        -1.697040
 C         2.008382         1.960732        -1.241318
 C         3.066039         1.467551        -2.352805
 C         3.059507         0.133715        -1.477659
 O         3.802058        -1.051063        -1.498126
 C         1.693373         0.421998        -0.809069
 C         2.948619         0.711125         0.015263
 O         3.445926        -0.012230         1.095499
 C         2.906746         2.213024        -0.020605
 H         0.039853         3.015222        -0.996235
 H         1.295280         3.894648        -1.811033
 H         0.324381         2.570548        -2.542385
 H         2.626398         1.668248        -3.329342
 H         4.028475         2.186549        -2.451198
 H         4.738520        -0.843543        -1.698884
 H         0.771229        -0.026502        -0.609776
 H         3.982624        -0.698542         0.708173
 H         2.400629         2.521668         0.917587
 H         3.749458         2.809374        -0.121018
