19
Iteration:    12
 C         0.874683         2.844229        -1.674057
 C         2.018299         1.953600        -1.227737
 C         3.050676         1.535145        -2.386429
 C         3.152417         0.176500        -1.479989
 O         3.810205        -1.103025        -1.567998
 C         1.832339         0.349931        -0.840315
 C         2.945191         0.776788         0.053402
 O         3.443710         0.077988         1.111380
 C         2.713832         2.232018         0.084396
 H         0.163440         3.036413        -0.862512
 H         1.306774         3.803920        -2.006009
 H         0.348515         2.377124        -2.510392
 H         2.376573         1.355762        -3.231927
 H         3.971178         2.040312        -2.708658
 H         4.727236        -1.021257        -1.712601
 H         0.869038        -0.212284        -0.900465
 H         3.564382        -0.879156         0.737603
 H         2.206951         2.610618         0.988903
 H         3.590198         2.799359        -0.211661
