19
Iteration:  2842
 C         0.867297         2.901090        -1.612427
 C         2.012712         1.908308        -1.321333
 C         3.055286         1.343782        -2.342640
 C         3.194171         0.237703        -1.346642
 O         3.738904        -1.059028        -1.742780
 C         1.777910         0.508060        -0.837834
 C         2.999618         0.769830         0.104937
 O         3.463102        -0.034055         1.210050
 C         2.785224         2.261412        -0.067725
 H         0.142590         2.943951        -0.796739
 H         1.217710         3.996356        -1.862923
 H         0.276166         2.415222        -2.415493
 H         2.536765         1.120704        -3.336275
 H         3.860497         2.018076        -2.563814
 H         4.739084        -1.014892        -1.671071
 H         0.917950        -0.178562        -0.704764
 H         2.981865        -0.837747         1.065452
 H         2.184600         2.911728         0.597064
 H         3.842460         2.877583        -0.081838
