19
Iteration:   417
 C         0.802175         2.799145        -1.720226
 C         2.070603         1.998257        -1.286867
 C         3.070409         1.394978        -2.381837
 C         3.227082         0.282330        -1.354905
 O         3.705302        -0.977038        -1.660702
 C         1.785828         0.483594        -0.904172
 C         2.919596         0.693284         0.102601
 O         3.588233        -0.070452         1.113705
 C         2.735910         2.195317         0.102144
 H         0.096915         2.881138        -0.936434
 H         0.993715         3.829423        -1.998000
 H         0.280634         2.365349        -2.541769
 H         2.573886         1.058461        -3.283187
 H         3.989026         1.992452        -2.648910
 H         4.674787        -0.949311        -1.457729
 H         0.997006        -0.103675        -1.045424
 H         3.056151        -0.171891         1.910266
 H         1.967552         2.689993         0.802044
 H         3.577751         2.929170        -0.111247
