19
Iteration:   468
 C         0.873513         2.918087        -1.808324
 C         1.915422         1.963926        -1.217881
 C         3.064842         1.471254        -2.209641
 C         3.055150         0.141137        -1.436783
 O         3.894181        -1.056873        -1.751743
 C         1.735304         0.331437        -0.773608
 C         3.047927         0.779700         0.016057
 O         3.584082        -0.019512         1.029319
 C         2.693145         2.243010         0.112155
 H        -0.030924         3.187828        -1.183922
 H         1.369714         3.918020        -1.981045
 H         0.498064         2.484942        -2.804653
 H         2.739322         1.353517        -3.261268
 H         4.014449         2.013484        -2.244589
 H         4.014458        -1.316776        -0.851756
 H         0.804584        -0.330593        -0.464590
 H         3.166885         0.181712         1.860658
 H         1.974396         2.405929         0.867014
 H         3.420827         3.062067         0.046043
