19
Iteration:  2109
 C         0.870677         2.912523        -1.743618
 C         1.883174         1.904158        -1.363906
 C         3.162474         1.475375        -2.245104
 C         3.171476         0.231380        -1.318010
 O         3.712374        -1.029283        -1.706828
 C         1.749320         0.466117        -0.774563
 C         2.913674         0.739887         0.085174
 O         3.706345        -0.113695         1.038470
 C         2.683324         2.250515         0.010774
 H         0.142065         2.756516        -0.940759
 H         1.109779         3.985012        -1.920206
 H         0.443252         2.682018        -2.716175
 H         2.910407         1.031669        -3.276820
 H         4.049695         2.136358        -2.405935
 H         4.149147        -1.331498        -0.849846
 H         0.919228        -0.145366        -0.907424
 H         3.222146        -0.301352         1.825228
 H         1.782747         2.723162         0.695588
 H         3.606786         2.914843        -0.007845
