19
Iteration:  1817charge 0 multiplicity 1
 C         0.896123         2.885241        -1.776029
 C         1.952392         1.917810        -1.326869
 C         2.995367         1.392786        -2.368354
 C         3.154117         0.243969        -1.302075
 O         3.835747        -0.860312        -1.685071
 C         1.732931         0.470636        -0.753614
 C         2.979880         0.732101         0.164022
 O         3.557325        -0.209894         1.086400
 C         2.792660         2.243574        -0.049668
 H         0.092746         3.177443        -1.088951
 H         1.328186         3.886471        -1.771394
 H         0.211468         2.814449        -2.643860
 H         2.841561         1.014962        -3.380389
 H         3.826801         2.186665        -2.606759
 H         4.009652        -1.383087        -0.886153
 H         0.943322        -0.239815        -0.627005
 H         2.908586        -0.479068         1.709824
 H         2.071065         2.616055         0.671853
 H         3.682573         2.820328        -0.232841
