19
Iteration:  4376
 C         0.841810         2.887928        -1.788975
 C         1.870564         1.932584        -1.286508
 C         3.100176         1.573872        -2.304885
 C         3.238220         0.214478        -1.368772
 O         3.991172        -1.003901        -1.620035
 C         1.789163         0.391823        -0.851739
 C         2.981705         0.648816         0.083278
 O         3.325035        -0.041039         1.173130
 C         2.760172         2.169551         0.005488
 H        -0.064574         3.098538        -1.116444
 H         1.279574         3.900634        -1.865834
 H         0.433012         2.571756        -2.755600
 H         2.662090         0.965657        -3.171853
 H         3.791107         2.426302        -2.528877
 H         3.495927        -1.687128        -2.062399
 H         0.927640        -0.245027        -0.844318
 H         3.961732         0.445394         1.689024
 H         2.096222         2.511598         0.752465
 H         3.619832         2.824773        -0.174913
