19
Iteration:  2613charge 0 multiplicity 1
 C         0.867028         2.916317        -1.766012
 C         1.965604         1.960338        -1.277696
 C         3.036446         1.394855        -2.309007
 C         3.196803         0.202138        -1.324174
 O         3.693634        -1.019182        -1.743153
 C         1.777275         0.434349        -0.793256
 C         3.022483         0.738740         0.072854
 O         3.576847        -0.048788         1.082262
 C         2.760830         2.223834         0.008092
 H         0.088914         3.016450        -1.056328
 H         1.360295         3.921835        -1.830126
 H         0.387160         2.731994        -2.676333
 H         2.571983         0.935940        -3.234513
 H         3.989913         1.962012        -2.346451
 H         4.318749        -1.350771        -1.052598
 H         0.876121        -0.049217        -0.668713
 H         3.087769        -0.090149         1.890393
 H         2.196616         2.529851         0.989846
 H         3.518711         2.956234        -0.161931
