19
Iteration:   894charge 0 multiplicity 1
 C         0.869042         2.862745        -1.761861
 C         1.955330         1.911577        -1.245029
 C         3.014906         1.368894        -2.301581
 C         3.147955         0.139685        -1.417413
 O         3.949578        -0.883861        -1.734023
 C         1.696250         0.439891        -0.813727
 C         2.948134         0.721309         0.110413
 O         3.489621        -0.036691         1.151990
 C         2.817313         2.232021        -0.015802
 H         0.144600         3.091165        -0.994984
 H         1.413010         3.695838        -2.121059
 H         0.404920         2.412203        -2.657183
 H         2.511062         1.242574        -3.300724
 H         3.815826         2.115630        -2.464464
 H         3.796797        -1.606707        -1.027982
 H         0.724812        -0.244189        -0.696029
 H         3.161989         0.217145         2.013367
 H         2.291802         2.734484         0.809636
 H         3.568849         2.883081        -0.294129
