19
Iteration:  2772
 C         0.885316         2.893229        -1.730499
 C         1.974723         1.948323        -1.325068
 C         3.104969         1.353733        -2.267894
 C         3.130661         0.227194        -1.313499
 O         3.722901        -0.932502        -1.695504
 C         1.749037         0.416288        -0.798680
 C         2.876658         0.784467         0.098626
 O         3.611963        -0.072162         0.971386
 C         2.764987         2.216457         0.008220
 H         0.084296         3.025276        -0.930440
 H         1.282176         3.859270        -1.967209
 H         0.375992         2.443764        -2.599574
 H         2.869330         1.057149        -3.286206
 H         4.120433         1.900133        -2.366750
 H         3.906990        -1.521051        -0.906752
 H         0.997312        -0.273236        -0.604651
 H         3.340350        -0.051228         1.878889
 H         2.327245         2.689934         0.923652
 H         3.739807         2.797234        -0.003851
