19
Iteration:  3926charge 0 multiplicity 1
 C         0.887004         2.919787        -1.693301
 C         1.894786         1.910371        -1.316726
 C         3.054755         1.396387        -2.341228
 C         3.203619         0.191109        -1.353282
 O         3.857773        -0.924691        -1.584976
 C         1.778874         0.396017        -0.855794
 C         2.971814         0.709573         0.060732
 O         3.395296        -0.097623         1.088043
 C         2.795845         2.253237        -0.065974
 H         0.295300         3.121642        -0.719008
 H         1.165939         4.023325        -1.913876
 H         0.299708         2.567300        -2.594727
 H         2.640947         1.093401        -3.325632
 H         3.859794         2.054037        -2.726694
 H         4.029522        -1.395784        -0.711579
 H         0.873294        -0.235010        -0.618612
 H         4.298818         0.039706         1.542708
 H         2.269119         2.605065         0.776740
 H         3.414103         3.086960        -0.356931
