19
Iteration:  1561
 C         0.898405         2.863205        -1.759732
 C         1.998915         1.932917        -1.228349
 C         3.020301         1.416274        -2.263509
 C         3.109803         0.167705        -1.404094
 O         3.846711        -1.016040        -1.713049
 C         1.760137         0.437530        -0.824328
 C         3.024703         0.764533        -0.022573
 O         3.440850         0.015979         1.032759
 C         2.721703         2.230321         0.163211
 H         0.125276         3.153802        -0.990296
 H         1.467138         3.787759        -2.069836
 H         0.448332         2.391773        -2.607684
 H         2.516606         1.106527        -3.252038
 H         4.001974         1.895036        -2.544264
 H         4.080211        -1.448485        -0.880531
 H         0.871062        -0.147666        -0.352724
 H         4.361487         0.077572         1.273069
 H         1.859423         2.300865         0.838200
 H         3.495864         3.061199         0.153567
