19
Iteration:  1909charge 0 multiplicity 1
 C         0.874584         2.785596        -1.767474
 C         2.026270         1.989858        -1.251597
 C         3.069724         1.485211        -2.321885
 C         3.200776         0.280606        -1.354687
 O         3.681145        -1.002737        -1.668927
 C         1.812326         0.457380        -0.875628
 C         2.921257         0.655991         0.053748
 O         3.630837        -0.019833         1.038887
 C         2.721300         2.188667         0.121092
 H         0.078279         3.057114        -1.025277
 H         1.207190         3.809607        -1.980882
 H         0.385805         2.247865        -2.550821
 H         2.715570         1.260335        -3.358940
 H         3.896554         2.169631        -2.568584
 H         3.956413        -1.360416        -0.828260
 H         0.778286        -0.114513        -1.056460
 H         3.062140        -0.215832         1.854942
 H         1.980747         2.502384         0.968545
 H         3.679257         2.812180        -0.004534
