19
Iteration:   124charge 0 multiplicity 1
 C         0.865352         2.866421        -1.760603
 C         1.939563         1.904564        -1.341198
 C         3.078862         1.484993        -2.290951
 C         3.228716         0.280286        -1.359464
 O         3.749192        -1.019896        -1.608753
 C         1.773431         0.438852        -0.792153
 C         2.904993         0.670073         0.099898
 O         3.650475        -0.097126         0.997882
 C         2.666896         2.265015         0.028959
 H         0.211446         3.038087        -0.920768
 H         1.371000         3.814381        -2.076575
 H         0.245498         2.504364        -2.577342
 H         2.558038         1.159809        -3.247494
 H         3.795654         2.225005        -2.629913
 H         4.637220        -1.079929        -1.128867
 H         0.832417        -0.218275        -0.571848
 H         3.165744        -0.392941         1.745336
 H         2.048221         2.764412         0.758088
 H         3.490093         3.055584         0.022213
