19
Iteration:   754
 C         0.894050         2.838145        -1.819554
 C         1.832833         1.872907        -1.235542
 C         2.986744         1.452989        -2.209447
 C         3.186207         0.216228        -1.465226
 O         3.808669        -0.960387        -1.681817
 C         1.767175         0.446184        -0.840825
 C         3.061866         0.735507        -0.021562
 O         3.541334        -0.027954         1.149297
 C         2.779312         2.171852         0.049561
 H        -0.037997         3.155141        -1.281010
 H         1.499515         3.774217        -2.179792
 H         0.579359         2.547219        -2.873150
 H         2.388337         1.218279        -3.138496
 H         3.822299         2.189596        -2.211947
 H         4.255632        -1.238896        -0.884977
 H         0.886874        -0.369961        -0.760734
 H         2.993688         0.344182         1.877484
 H         2.413278         2.449124         1.067777
 H         3.742405         2.860910         0.028304
