19
Iteration:   476
 C         0.889607         2.917923        -1.804311
 C         1.966115         1.924428        -1.248392
 C         3.020884         1.437726        -2.230661
 C         3.097374         0.147527        -1.408351
 O         3.868368        -0.985163        -1.700994
 C         1.721224         0.440734        -0.798094
 C         3.054309         0.695690         0.020013
 O         3.606564        -0.017697         1.020840
 C         2.654593         2.254364         0.097868
 H         0.150693         3.016931        -0.936995
 H         1.455291         3.844825        -1.984916
 H         0.454028         2.577537        -2.796579
 H         2.587042         1.181591        -3.210518
 H         3.861436         1.999472        -2.275086
 H         4.134997        -1.534052        -0.971644
 H         0.852516        -0.441872        -0.646858
 H         3.018035         0.021978         1.786571
 H         1.981345         2.390789         0.964881
 H         3.305205         3.095207         0.024358
