19
Iteration:   602charge 0 multiplicity 1
 C         0.832637         2.867993        -1.871705
 C         1.968983         1.919538        -1.271498
 C         3.074184         1.465139        -2.252108
 C         3.100150         0.236425        -1.390685
 O         3.737609        -0.942599        -1.738816
 C         1.751831         0.317371        -0.786026
 C         3.031738         0.710261         0.073514
 O         3.609520         0.015964         1.139688
 C         2.768284         2.187847         0.066826
 H         0.005317         3.006444        -1.144779
 H         1.409841         3.861256        -2.033807
 H         0.466174         2.500859        -2.848923
 H         2.757317         1.395604        -3.265480
 H         3.748357         2.269330        -2.274364
 H         4.163512        -1.459426        -1.066759
 H         1.076683        -0.429526        -0.844962
 H         2.959777        -0.076387         1.832133
 H         2.132688         2.355886         0.921709
 H         3.635569         2.874710         0.104344
