19
Iteration:  3935charge 0 multiplicity 1
 C         0.783097         2.905940        -1.711955
 C         1.974514         2.011106        -1.276421
 C         3.089221         1.371939        -2.305732
 C         3.224719         0.192943        -1.362416
 O         3.926018        -1.000628        -1.648524
 C         1.686262         0.389817        -0.829563
 C         2.952549         0.719733         0.042013
 O         3.403850        -0.106791         1.091224
 C         2.793555         2.308777        -0.084881
 H         0.191397         3.056569        -0.770084
 H         1.307616         3.890064        -1.922471
 H         0.017315         2.613972        -2.442814
 H         2.564480         0.970805        -3.253186
 H         4.035083         1.923840        -2.449859
 H         3.967851        -1.445504        -0.752605
 H         0.701550        -0.122492        -0.721162
 H         4.122434         0.426116         1.564928
 H         2.236178         2.660637         0.794440
 H         3.770005         2.862622        -0.172902
