19
Iteration:  1110
 C         0.880848         2.883450        -1.838543
 C         1.964345         1.920308        -1.294536
 C         3.023792         1.410592        -2.320611
 C         3.144015         0.203219        -1.379883
 O         3.749469        -0.964376        -1.579229
 C         1.773664         0.425328        -0.843787
 C         3.006419         0.774675         0.131179
 O         3.691198        -0.099856         1.046097
 C         2.633009         2.275261         0.050263
 H         0.111414         2.860062        -1.087633
 H         1.261883         3.858043        -2.056500
 H         0.426610         2.385145        -2.742405
 H         2.538655         1.214655        -3.260413
 H         3.972545         2.015833        -2.598509
 H         4.620996        -0.949991        -1.077896
 H         0.927439        -0.132415        -0.716598
 H         2.922687        -0.456746         1.565006
 H         1.910268         2.415282         0.835701
 H         3.390003         3.029685         0.236215
