19
Iteration:  2738charge 0 multiplicity 1
 C         0.940903         2.950090        -1.862796
 C         1.898900         2.005699        -1.245271
 C         2.941537         1.459675        -2.313532
 C         3.083275         0.170485        -1.427057
 O         3.848180        -1.010380        -1.683007
 C         1.754553         0.454835        -0.786043
 C         2.981048         0.708273         0.076936
 O         3.674122        -0.077322         1.093980
 C         2.720043         2.191861         0.104341
 H         0.186462         3.381879        -1.160663
 H         1.477091         3.710705        -2.351760
 H         0.437403         2.405179        -2.719879
 H         2.489951         1.273678        -3.321105
 H         3.992393         1.973606        -2.295097
 H         3.480349        -1.768264        -1.199355
 H         0.921876        -0.059747        -0.406327
 H         3.303549         0.158162         1.956182
 H         2.104546         2.212042         1.039885
 H         3.654210         2.751871        -0.064052
