19
Iteration:  1226charge 0 multiplicity 1
 C         0.843777         2.880842        -1.758283
 C         1.894850         1.906069        -1.356321
 C         3.027215         1.425464        -2.287208
 C         3.183794         0.221545        -1.366083
 O         3.818480        -0.979638        -1.529410
 C         1.729750         0.411464        -0.819245
 C         2.931125         0.730323         0.070774
 O         3.506607        -0.038453         1.096664
 C         2.798005         2.212631        -0.031374
 H         0.229229         3.217301        -0.924617
 H         1.387460         3.784836        -2.177448
 H         0.160838         2.528748        -2.544253
 H         2.554913         1.147997        -3.250388
 H         3.720690         2.180526        -2.494466
 H         4.781185        -0.647171        -1.598643
 H         0.976321        -0.250481        -0.652057
 H         4.205070        -0.688569         0.821653
 H         2.318653         2.740801         0.841969
 H         3.792250         2.738330         0.099290
