19
Iteration:  3891charge 0 multiplicity 1
 C         0.929681         2.970362        -1.784494
 C         1.972327         1.932954        -1.290301
 C         2.997699         1.387031        -2.356202
 C         3.131735         0.205207        -1.387314
 O         3.898238        -0.987445        -1.621387
 C         1.746911         0.410522        -0.816047
 C         2.966473         0.715961         0.067177
 O         3.470507        -0.056324         1.090699
 C         2.723441         2.234850         0.104915
 H        -0.026233         2.908497        -1.235385
 H         1.341751         4.009869        -2.022046
 H         0.516194         2.535724        -2.729167
 H         2.256818         1.034131        -3.145868
 H         3.836321         2.033526        -2.647043
 H         4.008461        -1.530471        -0.791448
 H         0.868404        -0.181566        -0.634311
 H         4.464726         0.121848         1.051230
 H         2.020415         2.395460         0.918105
 H         3.434741         3.016051        -0.106901
