19
Iteration:  2203charge 0 multiplicity 1
 C         0.881733         2.867185        -1.764064
 C         1.992461         1.899713        -1.291681
 C         2.980310         1.447801        -2.335160
 C         3.158110         0.292422        -1.340331
 O         3.827017        -0.925401        -1.685763
 C         1.737391         0.504952        -0.793922
 C         2.983445         0.684906         0.088114
 O         3.496491        -0.128324         1.083471
 C         2.879385         2.217049         0.030203
 H         0.303872         3.153982        -0.869900
 H         1.094116         3.684175        -2.445180
 H         0.376197         2.274781        -2.524293
 H         2.496438         0.987851        -3.170620
 H         3.644644         2.215876        -2.683384
 H         3.940027        -1.229396        -0.775403
 H         0.977882        -0.172519        -0.822402
 H         2.875357        -0.527431         1.742662
 H         2.154598         2.649117         0.703499
 H         3.853853         2.783769        -0.021655
