19
Iteration:  2889charge 0 multiplicity 1
 C         0.980609         2.883414        -1.778601
 C         1.965038         1.968580        -1.199254
 C         3.014155         1.508249        -2.197975
 C         3.137426         0.209230        -1.420225
 O         3.674637        -1.117993        -1.690597
 C         1.776640         0.381487        -0.818969
 C         2.978578         0.668306        -0.010221
 O         3.518408         0.072614         1.120991
 C         2.760060         2.235295         0.045732
 H         0.218550         3.270596        -1.074508
 H         1.592266         3.719494        -2.143433
 H         0.413809         2.368275        -2.621388
 H         2.512069         1.269903        -3.211869
 H         3.873491         2.128455        -2.427194
 H         4.655155        -1.019320        -1.657500
 H         0.847978        -0.023776        -0.555500
 H         3.939685        -0.794673         0.912621
 H         2.186534         2.386575         1.029874
 H         3.552227         3.090847         0.037720
