19
Iteration:  2360charge 0 multiplicity 1
 C         0.811347         2.837687        -1.700549
 C         2.025494         1.970845        -1.264436
 C         3.016622         1.466499        -2.335426
 C         3.101109         0.189369        -1.438670
 O         3.880847        -0.974493        -1.630333
 C         1.764059         0.504952        -0.887278
 C         2.991849         0.683720         0.085415
 O         3.506702        -0.070404         1.099321
 C         2.872872         2.213855         0.031816
 H         0.131221         3.219268        -0.884122
 H         1.138521         3.799560        -2.330098
 H         0.154977         2.360628        -2.432131
 H         2.405942         1.244827        -3.309911
 H         3.846300         2.052112        -2.580978
 H         3.553939        -1.519425        -0.852091
 H         0.895891        -0.061456        -0.976634
 H         2.855931        -0.022032         1.861816
 H         2.223469         2.419122         0.837501
 H         3.845578         2.748753        -0.112636
