19
Iteration:  4758
 C         0.862266         2.853583        -1.793473
 C         1.940076         1.882436        -1.310856
 C         3.047364         1.478782        -2.322249
 C         3.097742         0.294149        -1.406297
 O         3.967139        -0.927552        -1.572253
 C         1.736228         0.428134        -0.850356
 C         3.024758         0.760529         0.029161
 O         3.481414        -0.047925         1.139787
 C         2.754948         2.143209         0.001967
 H         0.314125         3.066942        -0.856154
 H         1.436627         3.658415        -2.164019
 H         0.090320         2.548015        -2.476092
 H         2.688130         1.433512        -3.326828
 H         3.953759         2.009876        -2.138674
 H         3.445862        -1.663404        -1.320379
 H         0.908311        -0.327116        -0.605920
 H         2.703336        -0.546055         1.330828
 H         2.242376         2.526695         0.934936
 H         3.730154         2.743626        -0.017525
