19
Iteration:  1042
 C         0.822640         2.853303        -1.663121
 C         2.000254         1.903018        -1.416838
 C         3.021011         1.375617        -2.329460
 C         3.178934         0.179654        -1.356872
 O         3.940179        -0.896520        -1.720014
 C         1.752172         0.446669        -0.771203
 C         2.999020         0.724368         0.069163
 O         3.454857        -0.021875         1.166218
 C         2.755221         2.175473        -0.022448
 H         0.235780         3.094806        -0.763766
 H         1.308198         3.752115        -2.129764
 H         0.115638         2.454962        -2.428502
 H         2.606554         1.279807        -3.353318
 H         3.911537         2.083756        -2.703499
 H         3.910032        -1.538787        -1.043707
 H         0.720199        -0.134020        -0.658077
 H         3.014811         0.332689         1.930167
 H         2.082266         2.548314         0.750991
 H         3.672533         2.848056        -0.236787
