19
Iteration:  3795
 C         0.876908         2.816951        -1.715514
 C         1.984176         1.945410        -1.323168
 C         3.109418         1.397471        -2.346070
 C         3.129018         0.213153        -1.426922
 O         3.857330        -0.936475        -1.668792
 C         1.805301         0.338469        -0.812887
 C         2.931092         0.808424         0.073020
 O         3.341733        -0.126694         1.140943
 C         2.815614         2.348080         0.002569
 H         0.301602         3.121641        -0.760411
 H         1.173996         3.827916        -2.120954
 H         0.118167         2.228941        -2.283327
 H         2.621312         1.108126        -3.301711
 H         3.911309         2.125824        -2.546795
 H         3.930700        -1.578088        -0.958503
 H         0.908952        -0.159108        -0.565222
 H         4.220406         0.167767         1.373716
 H         2.180135         2.748208         0.841036
 H         3.864701         2.927871        -0.032528
