19
Iteration:  3930charge 0 multiplicity 1
 C         0.828641         2.912882        -1.711847
 C         1.932535         1.981729        -1.274902
 C         3.072434         1.384650        -2.332526
 C         3.235224         0.172875        -1.353344
 O         3.889619        -0.959551        -1.617061
 C         1.714628         0.375613        -0.846918
 C         2.961333         0.708567         0.062574
 O         3.403654        -0.098311         1.086090
 C         2.791967         2.285148        -0.094453
 H         0.332513         3.102295        -0.774890
 H         1.199014         3.900898        -1.847008
 H         0.141573         2.611912        -2.506477
 H         2.646603         1.040865        -3.232328
 H         3.974965         1.984852        -2.616652
 H         3.974704        -1.386268        -0.754998
 H         0.792680        -0.141447        -0.684435
 H         4.165220         0.193288         1.560875
 H         2.264649         2.644679         0.840682
 H         3.611479         3.037807        -0.260791
