19
Iteration:  3792charge 0 multiplicity 1
 C         0.891905         2.808620        -1.702020
 C         1.963647         1.937083        -1.317634
 C         3.097838         1.389824        -2.322463
 C         3.131071         0.207178        -1.426737
 O         3.870561        -0.928038        -1.670698
 C         1.788755         0.354251        -0.825719
 C         2.932854         0.808499         0.068242
 O         3.349225        -0.123085         1.128987
 C         2.797173         2.359505        -0.013918
 H         0.380599         3.133338        -0.762325
 H         1.230363         3.852909        -2.082645
 H         0.162767         2.215376        -2.307194
 H         2.671636         1.032739        -3.331931
 H         3.878075         2.111533        -2.525193
 H         3.912160        -1.575324        -0.904409
 H         0.844268        -0.152317        -0.624724
 H         4.256463         0.092472         1.491162
 H         2.306834         2.815929         0.845140
 H         3.834527         2.836951        -0.036479
