19
Iteration:  3577
 C         0.887585         2.944264        -1.763347
 C         1.905423         1.892252        -1.373216
 C         3.050047         1.400722        -2.326812
 C         3.127196         0.202551        -1.348534
 O         3.874409        -0.976450        -1.670307
 C         1.723729         0.483974        -0.817981
 C         2.859521         0.716605         0.087325
 O         3.526098        -0.088975         1.136636
 C         2.743692         2.238435         0.051150
 H         0.085978         3.094794        -0.971588
 H         1.418685         3.902272        -1.824051
 H         0.474524         2.975102        -2.801774
 H         2.689776         0.826976        -3.213115
 H         4.051079         1.970818        -2.422264
 H         4.333901        -1.397540        -0.879888
 H         1.025376        -0.319890        -0.673097
 H         4.492927         0.086033         0.933447
 H         2.081697         2.434418         0.988814
 H         3.602023         2.852708        -0.084612
