19
Iteration:  3464
 C         0.836486         3.016903        -1.732218
 C         1.943689         1.883539        -1.313170
 C         2.979374         1.396267        -2.299683
 C         3.225922         0.140793        -1.415287
 O         3.940977        -0.946744        -1.641323
 C         1.792018         0.375100        -0.811515
 C         3.010455         0.698534         0.009731
 O         3.321402        -0.026677         1.115367
 C         2.830966         2.230744         0.022364
 H         0.340257         3.142127        -0.846311
 H         1.271684         3.987325        -2.101497
 H         0.319955         2.514297        -2.522032
 H         2.204865         1.312919        -3.125225
 H         3.867781         1.936624        -2.710473
 H         3.973977        -1.359075        -0.792208
 H         0.745150        -0.142704        -0.805365
 H         4.245705        -0.129516         1.345071
 H         2.088318         2.235426         0.898080
 H         3.557203         3.099406         0.165662
