19
Iteration:   328
 C         0.870575         2.844103        -1.747903
 C         2.009784         1.940613        -1.212245
 C         2.990932         1.367270        -2.344771
 C         3.127777         0.219289        -1.414026
 O         3.870383        -0.860966        -1.689792
 C         1.693627         0.436446        -0.833616
 C         3.009936         0.678284         0.062414
 O         3.574886        -0.072750         1.084977
 C         2.782852         2.198676         0.070570
 H         0.076382         3.090092        -1.101514
 H         1.406987         3.754211        -1.973192
 H         0.558629         2.377991        -2.676482
 H         2.374544         1.251350        -3.205997
 H         3.897095         1.880803        -2.678351
 H         4.132243        -1.367363        -0.870812
 H         0.625913        -0.095685        -0.576705
 H         2.810621        -0.083690         1.646243
 H         1.994927         2.688839         0.747686
 H         3.424422         3.151649         0.014254
