19
Iteration:  1234charge 0 multiplicity 1
 C         0.880175         2.855795        -1.801530
 C         1.938883         1.927485        -1.328934
 C         3.061019         1.417458        -2.287853
 C         3.124664         0.253309        -1.303379
 O         3.842333        -1.007119        -1.569691
 C         1.651174         0.456699        -0.841557
 C         2.881434         0.715552         0.154832
 O         3.571700        -0.018985         1.055606
 C         2.759382         2.200391         0.024509
 H         0.351242         3.104839        -0.849357
 H         1.346727         3.809518        -2.077639
 H         0.260978         2.402223        -2.523751
 H         2.513491         1.105713        -3.252030
 H         3.922399         2.008846        -2.734535
 H         4.780285        -0.636714        -1.487860
 H         0.850405        -0.230623        -0.639012
 H         4.230985        -0.428117         0.420706
 H         2.094122         2.599497         0.779867
 H         3.696122         2.687354        -0.176446
