19
Iteration:   280
 C         0.846685         2.868718        -1.724777
 C         1.930693         1.951896        -1.324771
 C         3.111101         1.421701        -2.269266
 C         3.104491         0.236896        -1.387808
 O         3.769110        -0.967363        -1.580219
 C         1.731636         0.455909        -0.935560
 C         2.944010         0.702162         0.096958
 O         3.679348        -0.137548         1.031847
 C         2.701438         2.209410         0.031010
 H         0.172470         3.099707        -0.860378
 H         1.213434         3.816264        -2.095526
 H         0.245834         2.375929        -2.495519
 H         2.707374         1.186025        -3.299770
 H         3.941005         2.193574        -2.467628
 H         4.410920        -1.025680        -0.893379
 H         0.933706        -0.113344        -1.051682
 H         3.384999         0.270092         1.897232
 H         2.074126         2.599875         0.804948
 H         3.542734         3.032644         0.018601
