19
Iteration:  3692
 C         0.823392         2.829750        -1.816337
 C         1.964574         2.021338        -1.283803
 C         3.129241         1.466637        -2.234943
 C         3.127684         0.200314        -1.445619
 O         3.810470        -1.035367        -1.746335
 C         1.688517         0.413342        -0.788765
 C         3.012627         0.719450         0.061575
 O         3.492900        -0.052543         1.209545
 C         2.750349         2.248499         0.057800
 H         0.079902         2.943482        -1.052371
 H         1.215180         3.851796        -2.183095
 H         0.504404         2.332751        -2.753777
 H         2.919088         1.209818        -3.285198
 H         4.058005         2.023548        -2.195068
 H         3.660815        -1.572658        -0.897702
 H         0.765598        -0.179111        -0.927869
 H         4.460810         0.222219         1.314816
 H         2.175104         2.718005         0.832607
 H         3.585376         2.988147        -0.243366
