19
Iteration:  2845
 C         0.872610         2.913284        -1.629217
 C         2.025022         1.917624        -1.321312
 C         3.052328         1.380817        -2.343510
 C         3.198904         0.214027        -1.362539
 O         3.735856        -1.035369        -1.746662
 C         1.746048         0.504383        -0.839239
 C         2.988673         0.760049         0.119303
 O         3.484080        -0.031167         1.235563
 C         2.793487         2.224011        -0.073647
 H         0.149475         2.927535        -0.818637
 H         1.187248         3.925375        -1.882237
 H         0.211292         2.416916        -2.415821
 H         2.489355         0.971656        -3.307817
 H         3.945879         2.028953        -2.467406
 H         4.708469        -1.062183        -1.689914
 H         0.931644        -0.078120        -0.698162
 H         3.066728        -0.932762         1.118205
 H         2.185617         2.986853         0.458789
 H         3.719854         2.837364        -0.095014
