19
Iteration:  2468charge 0 multiplicity 1
 C         0.880762         2.926246        -1.674392
 C         1.976906         1.936231        -1.348372
 C         3.051499         1.405087        -2.319850
 C         3.188757         0.234158        -1.396981
 O         3.735293        -1.051159        -1.757051
 C         1.811690         0.394645        -0.773331
 C         2.968571         0.759515         0.106108
 O         3.522567         0.018833         1.161609
 C         2.772038         2.215827        -0.057378
 H         0.035751         2.781386        -0.964139
 H         1.182816         3.910703        -1.471945
 H         0.475979         2.804645        -2.641531
 H         2.592855         1.021018        -3.277381
 H         4.000852         1.963166        -2.458090
 H         4.417462        -1.287378        -1.053931
 H         0.906789        -0.064789        -0.335845
 H         2.939814        -0.795967         1.188258
 H         2.210674         2.773891         0.675187
 H         3.550524         2.878150         0.047477
