19
Iteration:  3429charge 0 multiplicity 1
 C         0.984638         2.878877        -1.748838
 C         1.964823         1.848906        -1.345500
 C         3.068040         1.392410        -2.302498
 C         3.134222         0.276948        -1.347623
 O         3.873163        -0.883700        -1.688398
 C         1.735283         0.344313        -0.751737
 C         2.888600         0.751971         0.140962
 O         3.451084        -0.107803         1.106946
 C         2.757082         2.249922        -0.033210
 H         0.115272         2.894415        -1.092246
 H         1.378907         3.891563        -1.784578
 H         0.349353         2.776377        -2.626324
 H         2.542691         1.188095        -3.289187
 H         3.906256         2.052201        -2.465372
 H         3.642965        -1.598318        -1.112832
 H         0.749520        -0.228010        -0.717449
 H         4.341437         0.247674         1.122423
 H         2.019499         2.641850         0.676277
 H         3.614381         3.000543        -0.127421
