19
Iteration:  2087charge 0 multiplicity 1
 C         0.892464         2.797806        -1.844581
 C         1.933339         1.939106        -1.225998
 C         3.107829         1.472643        -2.223295
 C         3.088495         0.182611        -1.398925
 O         3.703154        -0.963037        -1.649799
 C         1.764262         0.426665        -0.774178
 C         3.066649         0.745569        -0.015841
 O         3.592888        -0.101129         0.971935
 C         2.764091         2.251774         0.127167
 H         0.108017         2.974735        -1.104527
 H         1.140950         3.796781        -2.195559
 H         0.490507         2.458694        -2.782526
 H         2.640382         1.524933        -3.263725
 H         4.034285         2.078872        -2.242013
 H         4.286767        -1.180589        -0.934960
 H         0.990844        -0.151083        -0.477271
 H         2.974878        -0.206172         1.759548
 H         1.944208         2.733770         0.825200
 H         3.490950         3.122040         0.138734
