19
Iteration:  2692charge 0 multiplicity 1
 C         0.856043         2.897065        -1.669495
 C         1.997202         1.881320        -1.322660
 C         3.090598         1.430224        -2.334683
 C         3.150333         0.198866        -1.404580
 O         3.728600        -0.996498        -1.747461
 C         1.746764         0.428843        -0.776118
 C         2.993473         0.723990         0.095707
 O         3.524915        -0.076269         1.175324
 C         2.837249         2.312977        -0.040727
 H         0.272834         3.169416        -0.809390
 H         1.326668         3.769882        -2.080103
 H         0.222781         2.496129        -2.485292
 H         2.591269         1.046197        -3.313378
 H         3.937467         2.189076        -2.595326
 H         4.484806        -1.184691        -1.117776
 H         0.752690        -0.135534        -0.536051
 H         2.843725        -0.253933         1.809440
 H         1.968574         2.657724         0.564059
 H         3.726210         2.853718        -0.236786
