19
Iteration:  1101
 C         0.877856         2.843148        -1.773867
 C         1.988826         1.938076        -1.404707
 C         3.043122         1.457956        -2.408843
 C         3.114898         0.214773        -1.343042
 O         3.805548        -0.943150        -1.545810
 C         1.711008         0.448886        -0.785089
 C         2.971335         0.750705         0.131580
 O         3.684850        -0.140139         1.019591
 C         2.629415         2.224660         0.076858
 H         0.052951         3.189824        -1.093439
 H         1.417469         3.730399        -2.092301
 H         0.431960         2.547111        -2.769602
 H         2.469589         1.048715        -3.240532
 H         3.929166         2.058554        -2.577051
 H         4.715405        -1.010380        -1.104992
 H         0.884053        -0.206250        -0.718192
 H         3.165079        -0.378457         1.857614
 H         1.779420         2.646624         0.777932
 H         3.516085         3.090249         0.081179
