19
Iteration:   148
 C         0.819304         2.929942        -1.692697
 C         1.887274         1.858583        -1.350816
 C         3.121907         1.415068        -2.211202
 C         3.099660         0.237566        -1.344035
 O         3.801003        -0.956883        -1.619898
 C         1.743964         0.342734        -0.853759
 C         3.000258         0.749339         0.047275
 O         3.576490        -0.094562         0.979153
 C         2.755836         2.238266        -0.018623
 H         0.231239         3.075220        -0.784278
 H         1.235210         3.843853        -2.068305
 H         0.088739         2.548238        -2.391807
 H         2.921169         1.189863        -3.265302
 H         3.989844         2.075372        -2.264528
 H         4.374464        -1.074160        -0.823055
 H         0.990970        -0.334265        -1.041292
 H         3.517370         0.235562         1.902546
 H         2.150230         2.778152         0.727931
 H         3.560892         3.144601        -0.045462
