19
Iteration:  3870
 C         0.893307         2.871744        -1.855249
 C         1.923068         1.939081        -1.317857
 C         3.100827         1.375382        -2.210578
 C         3.093620         0.199179        -1.339049
 O         3.825064        -0.907222        -1.705989
 C         1.646464         0.446985        -0.811003
 C         2.985085         0.658139         0.063950
 O         3.558256        -0.051281         1.119889
 C         2.758061         2.250842         0.024737
 H        -0.013522         2.955294        -1.166568
 H         1.489735         3.854222        -1.989792
 H         0.399911         2.707493        -2.858014
 H         2.704043         1.155791        -3.244626
 H         4.041032         1.921206        -2.093437
 H         3.895397        -1.640971        -1.080284
 H         0.776798        -0.056619        -0.437696
 H         4.441908         0.062119         1.499447
 H         2.005516         2.402251         0.755231
 H         3.557758         3.005547        -0.052682
