19
Iteration:    98charge 0 multiplicity 1
 C         0.843629         2.808609        -1.795685
 C         1.961703         2.033876        -1.191245
 C         3.006391         1.396469        -2.325571
 C         3.115230         0.222924        -1.480532
 O         3.771858        -0.963810        -1.669461
 C         1.768147         0.489535        -0.774513
 C         3.083827         0.627765        -0.028182
 O         3.551569         0.034044         1.145077
 C         2.779407         2.195779         0.112413
 H        -0.159207         3.012632        -1.314017
 H         1.291175         3.811511        -2.115080
 H         0.693768         2.211646        -2.740286
 H         2.427826         1.387160        -3.252228
 H         3.990355         1.929081        -2.518730
 H         4.530072        -0.903179        -1.016488
 H         0.999810        -0.316709        -0.698597
 H         2.957601        -0.653486         1.358140
 H         2.100843         2.187167         1.014509
 H         3.535448         2.843918         0.090705
