19
Iteration:  4874charge 0 multiplicity 1
 C         0.818860         2.713083        -1.709909
 C         1.987488         1.972463        -1.308129
 C         3.184392         1.391827        -2.354893
 C         3.211645         0.264361        -1.418370
 O         3.721267        -0.960221        -1.724453
 C         1.823492         0.427619        -0.854761
 C         2.965780         0.746381         0.048610
 O         3.447163        -0.037417         1.221633
 C         2.782962         2.281582         0.076018
 H         0.091745         2.674999        -0.884362
 H         1.076712         3.784672        -1.999419
 H         0.183261         2.279575        -2.479458
 H         2.692120         0.970428        -3.281346
 H         4.085081         1.984364        -2.654349
 H         4.675201        -1.010678        -1.609117
 H         0.835692        -0.061014        -1.118882
 H         2.908717         0.194692         1.993323
 H         2.001018         2.562126         0.804380
 H         3.701200         2.941507         0.149093
