19
Iteration:  4552charge 0 multiplicity 1
 C         0.828598         2.824404        -1.784356
 C         1.965047         1.952547        -1.259607
 C         3.055232         1.410314        -2.310709
 C         3.211315         0.243380        -1.386360
 O         3.944791        -0.965709        -1.698877
 C         1.837206         0.450169        -0.862581
 C         2.971609         0.717955         0.137026
 O         3.238072        -0.095617         1.092416
 C         2.781694         2.261151         0.036258
 H         0.043786         2.916856        -0.885794
 H         1.072066         3.890029        -1.994052
 H         0.221922         2.476534        -2.672138
 H         2.704635         1.210254        -3.314892
 H         4.079006         1.973170        -2.487745
 H         4.323724        -1.284917        -0.899854
 H         1.067896        -0.208733        -0.649281
 H         4.122353         0.079221         1.482198
 H         2.182973         2.658926         0.822528
 H         3.679899         2.874288         0.078396
