19
Iteration:  2941
 C         0.931196         2.873328        -1.734589
 C         1.973032         1.962348        -1.300364
 C         3.010395         1.473581        -2.280869
 C         3.100494         0.257596        -1.394791
 O         3.761389        -1.074222        -1.498290
 C         1.688486         0.513945        -0.852836
 C         2.925634         0.724398         0.085793
 O         3.554440        -0.052334         1.029998
 C         2.808729         2.181464         0.064998
 H         0.147149         2.870916        -1.002509
 H         1.357606         3.912826        -1.984629
 H         0.443549         2.397227        -2.633541
 H         2.497415         1.042358        -3.167635
 H         4.029251         1.998643        -2.422597
 H         4.587345        -0.854422        -2.013185
 H         0.840461        -0.085194        -0.903865
 H         4.002492        -0.747479         0.556569
 H         2.270968         2.793126         0.709788
 H         3.746387         2.782807        -0.062783
