19
Iteration:  3108charge 0 multiplicity 1
 C         0.818440         2.922298        -1.759842
 C         1.964273         1.949774        -1.305380
 C         3.033876         1.480010        -2.322451
 C         3.116712         0.162782        -1.442721
 O         3.866106        -1.025793        -1.540952
 C         1.759438         0.445140        -0.873500
 C         2.994671         0.741861         0.012942
 O         3.511675        -0.115721         0.998779
 C         2.814750         2.227526         0.101450
 H         0.068485         3.084903        -0.956154
 H         1.281549         3.864162        -1.975174
 H         0.324414         2.727774        -2.727003
 H         2.408847         1.277338        -3.201956
 H         3.823868         2.225718        -2.278971
 H         3.935335        -1.254739        -0.576943
 H         1.056132        -0.270324        -0.647246
 H         3.144347        -0.005246         1.894451
 H         2.462370         2.550746         1.012821
 H         3.668963         2.830312        -0.188186
