19
Iteration:  3761charge 0 multiplicity 1
 C         0.856971         3.007105        -1.745481
 C         1.954319         1.951491        -1.340076
 C         3.016176         1.393192        -2.371004
 C         3.139663         0.157893        -1.396935
 O         3.955859        -0.883003        -1.598187
 C         1.689064         0.378464        -0.759233
 C         2.897659         0.668090         0.029270
 O         3.410547        -0.099089         1.128327
 C         2.822206         2.205490        -0.047609
 H         0.189629         2.993997        -0.827522
 H         1.251480         4.061980        -2.031545
 H         0.381351         2.627747        -2.691713
 H         2.629289         0.918612        -3.321430
 H         3.838264         2.073981        -2.666771
 H         4.124457        -1.222944        -0.714274
 H         0.881273        -0.262699        -0.447382
 H         4.299900         0.153147         1.394157
 H         2.334195         2.471563         0.903740
 H         3.927640         2.682616         0.105845
