19
Iteration:  4999
 C         0.857553         2.800476        -1.700491
 C         1.917913         1.891667        -1.339081
 C         3.101150         1.440158        -2.228820
 C         3.202664         0.247439        -1.383871
 O         3.867285        -1.071760        -1.770293
 C         1.802707         0.393704        -0.838175
 C         2.989385         0.788532         0.085241
 O         3.398046         0.016799         1.172034
 C         2.674374         2.276746         0.011626
 H         0.168709         3.010242        -0.837855
 H         1.223985         3.836001        -1.877199
 H         0.346680         2.607041        -2.670918
 H         2.916895         1.182974        -3.302268
 H         3.906119         2.224302        -2.285068
 H         4.229240        -1.522026        -1.016285
 H         0.823408        -0.182616        -0.818329
 H         4.368586        -0.135685         1.101790
 H         1.991421         2.762646         0.724198
 H         3.464825         2.954321        -0.106906
