19
Iteration:   728charge 0 multiplicity 1
 C         0.831373         2.850776        -1.761075
 C         2.000919         1.973158        -1.384393
 C         3.033529         1.428043        -2.325602
 C         3.219154         0.231098        -1.343266
 O         3.866777        -0.928837        -1.753106
 C         1.767970         0.405223        -0.712779
 C         2.906560         0.748270         0.138607
 O         3.516538        -0.079758         1.132162
 C         2.781484         2.237707        -0.039807
 H         0.193788         2.910448        -0.901909
 H         1.105946         3.810321        -2.050180
 H         0.279584         2.381608        -2.604824
 H         2.453651         1.104566        -3.202205
 H         3.944692         2.020002        -2.496782
 H         3.937316        -1.589740        -1.085632
 H         0.983166        -0.226886        -0.658946
 H         2.878487        -0.248800         1.881572
 H         2.100668         2.623215         0.798370
 H         3.746460         2.792821         0.005792
