19
Iteration:  1407
 C         0.904557         2.884046        -1.842998
 C         1.980190         1.976130        -1.274026
 C         3.030019         1.390998        -2.319660
 C         3.087901         0.176368        -1.400244
 O         3.752402        -1.044988        -1.595566
 C         1.782331         0.449668        -0.807732
 C         2.959989         0.734245         0.122305
 O         3.635562         0.065952         1.000271
 C         2.652252         2.190364         0.145331
 H         0.141410         2.891120        -1.004475
 H         1.364142         3.850670        -2.103503
 H         0.358479         2.505751        -2.690357
 H         2.537730         1.046616        -3.149291
 H         3.845870         2.042574        -2.446116
 H         4.687477        -0.765648        -1.467205
 H         0.904813        -0.050182        -0.619315
 H         3.881776        -0.821578         0.754132
 H         1.925467         2.518739         0.911661
 H         3.615732         2.753707         0.481420
