19
Iteration:  1368charge 0 multiplicity 1
 C         0.785125         2.889841        -1.650130
 C         1.912491         1.869509        -1.385821
 C         2.998571         1.469941        -2.297938
 C         3.188535         0.241089        -1.391120
 O         3.779782        -0.981729        -1.577320
 C         1.871400         0.429721        -0.778788
 C         3.034161         0.743533         0.019749
 O         3.424539        -0.027002         1.198773
 C         2.849336         2.186306        -0.083357
 H         0.167616         3.238869        -0.852555
 H         1.238115         3.835903        -2.064659
 H         0.183268         2.489119        -2.482555
 H         2.636526         0.934088        -3.304342
 H         3.777579         2.279514        -2.605385
 H         4.769754        -0.773016        -1.600193
 H         1.022498        -0.381853        -0.737467
 H         3.502241        -0.945350         0.780732
 H         2.237094         2.704833         0.676188
 H         3.755032         2.725917        -0.314736
