19
Iteration:  4546charge 0 multiplicity 1
 C         0.821011         2.812100        -1.748130
 C         1.977575         1.903381        -1.258604
 C         3.098751         1.508562        -2.326631
 C         3.219291         0.233256        -1.378357
 O         3.932386        -0.978506        -1.696016
 C         1.821900         0.386470        -0.832384
 C         2.982033         0.775643         0.054476
 O         3.229386        -0.065007         1.118504
 C         2.780932         2.241841         0.043958
 H        -0.005273         2.943844        -1.133841
 H         1.336023         3.755789        -2.006783
 H         0.305281         2.542029        -2.671226
 H         2.505431         1.287863        -3.260273
 H         4.034604         1.956397        -2.492681
 H         4.180585        -1.326505        -0.796770
 H         0.910904        -0.260134        -0.663722
 H         4.161712        -0.049868         1.331273
 H         2.140523         2.504550         0.951543
 H         3.658030         2.933029        -0.054824
