19
Iteration:  3134charge 0 multiplicity 1
 C         0.911518         2.875507        -1.636756
 C         2.029837         1.929398        -1.356558
 C         3.094368         1.353262        -2.266559
 C         3.088041         0.227221        -1.334561
 O         3.907275        -0.848486        -1.660538
 C         1.666832         0.491901        -0.769810
 C         2.878406         0.691613         0.055652
 O         3.491276        -0.151981         1.008700
 C         2.755822         2.202353        -0.114427
 H         0.234715         3.003333        -0.734331
 H         1.312646         3.894282        -1.874620
 H         0.423753         2.644884        -2.581903
 H         2.685480         0.816317        -3.148982
 H         3.906814         2.054407        -2.278614
 H         4.201199        -1.216993        -0.818231
 H         0.764368        -0.230898        -0.703837
 H         3.337143         0.269779         1.872296
 H         2.122895         2.816311         0.660275
 H         3.777134         2.624697        -0.279505
