19
Iteration:  3182
 C         0.970153         2.906994        -1.770554
 C         1.912152         1.919067        -1.234716
 C         2.973510         1.552491        -2.334136
 C         3.170210         0.246751        -1.430424
 O         3.805465        -1.026044        -1.669966
 C         1.825545         0.322776        -0.782404
 C         3.032666         0.739890         0.029741
 O         3.475991        -0.042490         1.131014
 C         2.775057         2.209121        -0.016574
 H         0.427581         3.072167        -0.873208
 H         1.299986         3.913474        -2.136465
 H         0.318527         2.507970        -2.585986
 H         2.384692         1.377078        -3.210984
 H         3.921730         2.174609        -2.416693
 H         4.151202        -1.397340        -0.800408
 H         1.096076        -0.371705        -0.554508
 H         2.637293        -0.401102         1.462880
 H         2.009539         2.366110         0.840812
 H         3.584266         3.015851        -0.021935
