19
Iteration:  4649
 C         0.986208         2.882723        -1.828718
 C         2.012722         1.917378        -1.292046
 C         3.092680         1.398685        -2.299867
 C         3.153007         0.263019        -1.357078
 O         3.755525        -0.915366        -1.589818
 C         1.747512         0.379189        -0.846758
 C         2.849262         0.714533         0.089591
 O         3.638389        -0.050458         1.068015
 C         2.617532         2.170427         0.050773
 H         0.252806         3.012964        -0.993465
 H         1.272104         3.913825        -1.840015
 H         0.497040         2.728950        -2.780082
 H         2.733285         1.113597        -3.259973
 H         3.824989         2.206421        -2.567597
 H         4.696335        -0.856831        -1.288141
 H         1.078205        -0.407544        -0.802013
 H         2.959484        -0.629344         1.485203
 H         1.753181         2.521133         0.713736
 H         3.365974         3.062844         0.108702
