19
Iteration:   775
 C         0.905871         2.905367        -1.802937
 C         1.987431         1.931914        -1.283944
 C         3.100830         1.449861        -2.300786
 C         3.108762         0.192733        -1.393418
 O         3.801523        -0.987666        -1.677962
 C         1.728023         0.369201        -0.745726
 C         2.926526         0.713586         0.087247
 O         3.636890        -0.011620         1.032510
 C         2.643383         2.169805         0.046901
 H         0.073823         3.055309        -1.084859
 H         1.386062         3.870537        -2.152508
 H         0.529752         2.464793        -2.752940
 H         2.638128         1.099047        -3.275275
 H         3.885643         2.211883        -2.235125
 H         4.602843        -0.988572        -1.136809
 H         0.802290        -0.339684        -0.466785
 H         3.185604         0.150182         1.898286
 H         1.836416         2.589687         0.772795
 H         3.478798         3.006400         0.082684
