19
Iteration:   733charge 0 multiplicity 1
 C         0.851978         2.849379        -1.782548
 C         1.972372         1.982669        -1.309109
 C         3.010924         1.491313        -2.342241
 C         3.222536         0.222240        -1.352238
 O         3.857967        -0.947790        -1.744260
 C         1.790844         0.360378        -0.732819
 C         2.915158         0.717859         0.135957
 O         3.509942        -0.067709         1.140129
 C         2.802527         2.235076        -0.026433
 H         0.033917         2.948092        -1.007571
 H         1.023800         3.914261        -2.252226
 H         0.275174         2.542460        -2.677687
 H         2.465579         1.161257        -3.254461
 H         3.994527         1.942968        -2.580215
 H         4.008487        -1.658893        -1.039806
 H         0.884888        -0.407290        -0.651184
 H         2.964594        -0.153290         1.915407
 H         2.210798         2.687272         0.757554
 H         3.704460         2.893349        -0.016422
