19
Iteration:  1820
 C         0.892879         2.878241        -1.768119
 C         1.943502         1.948594        -1.330910
 C         2.992353         1.387380        -2.381346
 C         3.162216         0.260125        -1.320559
 O         3.850725        -0.842019        -1.680036
 C         1.726736         0.469479        -0.765533
 C         2.974005         0.699561         0.170642
 O         3.553425        -0.211071         1.097019
 C         2.794382         2.235894        -0.036153
 H         0.073052         3.153641        -1.041240
 H         1.473829         3.871966        -1.871544
 H         0.240004         2.794594        -2.649214
 H         2.700943         0.874849        -3.356396
 H         3.804927         2.110892        -2.716655
 H         4.001946        -1.361456        -0.885989
 H         0.964851        -0.192178        -0.580225
 H         2.859455        -0.504714         1.755125
 H         2.071946         2.676040         0.756964
 H         3.756480         2.800633        -0.283916
