19
Iteration:  3506charge 0 multiplicity 1
 C         0.830324         2.749106        -1.755036
 C         2.041256         2.024549        -1.336284
 C         3.112292         1.413936        -2.254647
 C         3.137145         0.239555        -1.382084
 O         3.795606        -0.943180        -1.729394
 C         1.706605         0.491753        -0.808310
 C         2.940453         0.700928         0.052211
 O         3.424221        -0.149154         1.140331
 C         2.829469         2.288502         0.028314
 H         0.364577         3.066749        -0.849309
 H         1.072002         3.706015        -2.260425
 H         0.138729         2.378393        -2.483113
 H         2.689498         1.104593        -3.184078
 H         3.950862         2.019968        -2.229377
 H         4.247400        -1.253339        -0.886452
 H         0.976473        -0.375949        -0.738552
 H         4.120706         0.405124         1.609802
 H         2.118954         2.759371         0.554582
 H         3.865735         2.690054        -0.025914
