19
Iteration:  4048
 C         0.954519         2.837842        -1.774483
 C         1.975566         1.913394        -1.253844
 C         3.102387         1.399585        -2.340881
 C         3.127272         0.218013        -1.434828
 O         3.811647        -1.019712        -1.588884
 C         1.742265         0.418384        -0.872459
 C         2.830328         0.711815         0.134239
 O         3.488837         0.083397         1.151167
 C         2.732689         2.178335         0.049225
 H         0.105154         2.960142        -1.016423
 H         1.333302         3.879319        -1.794423
 H         0.418840         2.581586        -2.726744
 H         2.657815         1.146550        -3.275528
 H         3.938506         2.141785        -2.332259
 H         4.575944        -0.658482        -2.048276
 H         0.902207        -0.243633        -0.771694
 H         4.229512        -0.428171         0.767883
 H         2.061761         2.607699         0.736454
 H         3.620700         2.789799         0.009028
