19
Iteration:  1763
 C         0.839475         2.790807        -1.791971
 C         2.064378         1.998337        -1.346729
 C         3.125432         1.541586        -2.285800
 C         3.140338         0.268801        -1.397084
 O         3.612921        -1.017329        -1.607112
 C         1.739247         0.489472        -0.862068
 C         2.973514         0.641968         0.030734
 O         3.699443        -0.039616         1.097190
 C         2.683983         2.109352         0.098127
 H         0.076412         2.890501        -0.962030
 H         1.045206         3.891707        -1.886317
 H         0.441689         2.520846        -2.821962
 H         2.685327         1.075299        -3.185245
 H         4.083632         2.155998        -2.526631
 H         4.358253        -1.099354        -0.983940
 H         0.942473        -0.143928        -1.292870
 H         3.328258         0.212576         1.929250
 H         1.893998         2.471193         0.834721
 H         3.592346         2.774767         0.325109
