19
Iteration:  1577
 C         0.884558         2.906395        -1.863595
 C         1.871111         1.915412        -1.258667
 C         3.046695         1.470957        -2.219845
 C         3.150984         0.221269        -1.423010
 O         3.748588        -1.041242        -1.694407
 C         1.769653         0.410874        -0.752786
 C         3.085274         0.756604         0.054974
 O         3.563320        -0.151946         1.080662
 C         2.675281         2.258208         0.024777
 H         0.106594         3.189253        -1.146393
 H         1.308112         3.904161        -2.020036
 H         0.528118         2.527661        -2.871446
 H         2.822878         1.448488        -3.253574
 H         3.796104         2.239985        -2.112225
 H         4.138022        -1.364693        -0.890812
 H         0.968643        -0.199936        -0.507622
 H         4.168810         0.487531         1.460082
 H         2.129961         2.491817         0.961936
 H         3.474350         3.003561         0.068324
