19
Iteration:  4721
 C         0.863046         2.714964        -1.705827
 C         1.967344         1.941687        -1.374437
 C         3.113207         1.435145        -2.238482
 C         3.291759         0.183121        -1.352087
 O         3.841040        -0.964479        -1.818197
 C         1.818208         0.497283        -0.867360
 C         2.885777         0.794814         0.085984
 O         3.389335        -0.071351         1.155246
 C         2.759320         2.323335         0.087055
 H         0.265684         2.840289        -0.804181
 H         0.997822         3.833654        -1.953478
 H         0.313337         2.248122        -2.552965
 H         2.658470         1.094475        -3.271309
 H         4.092108         1.859535        -2.622628
 H         4.029284        -1.626100        -1.137470
 H         1.072683        -0.207191        -0.942151
 H         3.013286         0.273519         1.968984
 H         2.047023         2.665628         0.841276
 H         3.682914         2.836375         0.073354
