19
Iteration:  1798charge 0 multiplicity 1
 C         0.868405         2.885676        -1.724499
 C         1.926772         1.969337        -1.298753
 C         3.149640         1.453771        -2.156887
 C         3.143999         0.182946        -1.423933
 O         3.763120        -1.029890        -1.673942
 C         1.744232         0.396940        -0.768698
 C         3.010372         0.720946         0.030982
 O         3.560929        -0.057964         0.977044
 C         2.718261         2.291561        -0.000588
 H        -0.099593         2.801232        -1.109973
 H         1.334304         3.917341        -1.814068
 H         0.459266         2.630114        -2.745068
 H         2.806856         1.297776        -3.210832
 H         4.139344         1.989500        -2.280170
 H         4.103371        -1.326336        -0.787639
 H         0.963481        -0.234030        -0.569195
 H         2.954568        -0.111069         1.711091
 H         2.039370         2.574028         0.899056
 H         3.616977         2.976555        -0.226342
