19
Iteration:  1398
 C         0.887447         2.862603        -1.756686
 C         2.004265         1.942951        -1.294255
 C         3.012552         1.367058        -2.359853
 C         3.165141         0.242559        -1.396127
 O         3.743545        -1.012783        -1.598081
 C         1.798343         0.464758        -0.822976
 C         2.893078         0.745895         0.106074
 O         3.637181         0.001766         1.079171
 C         2.675638         2.235906         0.140667
 H         0.035782         3.243460        -1.135438
 H         1.300423         3.846017        -2.100698
 H         0.469423         2.408075        -2.635432
 H         2.461035         0.962643        -3.210053
 H         3.814335         1.920474        -2.888220
 H         4.672115        -0.934915        -1.277493
 H         0.883056        -0.169772        -0.785584
 H         3.817793        -0.789948         0.560143
 H         1.839773         2.486254         0.800188
 H         3.616640         2.793191         0.200130
