19
Iteration:  2844charge 0 multiplicity 1
 C         0.870607         2.909673        -1.622009
 C         2.021743         1.912626        -1.320181
 C         3.054346         1.367726        -2.342126
 C         3.197495         0.223064        -1.356216
 O         3.736806        -1.044101        -1.745859
 C         1.755044         0.506450        -0.839620
 C         2.993111         0.764752         0.114138
 O         3.477082        -0.033017         1.227321
 C         2.787891         2.235018        -0.072734
 H         0.147158         2.931175        -0.819526
 H         1.201366         3.963178        -1.876178
 H         0.227502         2.407051        -2.416248
 H         2.494433         1.019534        -3.334797
 H         3.911270         2.022898        -2.496538
 H         4.728991        -1.048598        -1.684669
 H         0.943335        -0.102401        -0.701809
 H         3.036672        -0.896986         1.098523
 H         2.188384         2.972266         0.499459
 H         3.774731         2.860492        -0.084142
