19
Iteration:   172
 C         0.855828         2.858576        -1.677787
 C         1.976356         1.986189        -1.236072
 C         2.988418         1.460437        -2.378998
 C         3.127589         0.224599        -1.434503
 O         3.949859        -0.994097        -1.634903
 C         1.703006         0.487113        -0.849292
 C         2.913020         0.660776         0.006545
 O         3.549613        -0.020339         1.079300
 C         2.783809         2.075672         0.021821
 H         0.041093         2.988199        -0.952965
 H         1.161753         3.771711        -2.103635
 H         0.387257         2.263434        -2.472941
 H         2.540434         1.342147        -3.330302
 H         3.916981         1.980059        -2.588201
 H         4.126538        -1.282803        -0.760060
 H         0.804224         0.133281        -0.607594
 H         3.278005         0.503339         1.909313
 H         2.119139         2.572504         0.761194
 H         3.703890         2.839196         0.222885
