19
Iteration:  2954
 C         0.863063         2.857785        -1.697344
 C         2.009447         1.962180        -1.238481
 C         3.019955         1.501234        -2.339524
 C         3.048629         0.145498        -1.462774
 O         3.813659        -1.078777        -1.485965
 C         1.718618         0.448601        -0.819756
 C         2.901066         0.674345         0.022960
 O         3.481351        -0.014949         1.075765
 C         2.887866         2.277760         0.003806
 H         0.064063         3.136026        -0.951664
 H         1.341901         3.877956        -1.860493
 H         0.435015         2.610495        -2.740240
 H         2.761327         1.512138        -3.457630
 H         3.831996         2.207634        -2.383165
 H         4.700234        -0.903275        -1.786238
 H         0.629348         0.132150        -0.775663
 H         4.066667        -0.727536         0.658362
 H         2.334698         2.432304         0.937892
 H         3.960592         2.732855        -0.076161
