19
Iteration:  3670charge 0 multiplicity 1
 C         0.814399         2.683556        -1.763937
 C         2.065368         1.968412        -1.300355
 C         3.139216         1.449209        -2.241574
 C         3.125123         0.256196        -1.412537
 O         3.771334        -0.969686        -1.763110
 C         1.789605         0.463083        -0.810390
 C         2.961361         0.741709         0.069750
 O         3.356071         0.043233         1.151914
 C         2.855245         2.180723         0.057320
 H         0.209401         3.036980        -0.969458
 H         1.263749         3.635252        -2.297607
 H         0.357284         2.174455        -2.608714
 H         2.650551         1.112246        -3.182688
 H         3.892126         2.188640        -2.405366
 H         3.808839        -1.439380        -0.943076
 H         0.829538         0.062458        -0.519552
 H         4.263020        -0.182522         1.018609
 H         2.160941         2.328605         0.884312
 H         3.756108         2.922573         0.237200
