19
Iteration:    50
 C         0.782217         2.876368        -1.636911
 C         1.955535         1.927217        -1.358416
 C         3.202740         1.393856        -2.361878
 C         3.193760         0.301219        -1.342681
 O         3.730264        -0.956786        -1.717040
 C         1.762043         0.405260        -0.823313
 C         3.054245         0.650091         0.097519
 O         3.454638         0.052338         1.233885
 C         2.750369         2.213339        -0.081976
 H         0.219199         2.994373        -0.683002
 H         1.144435         3.884417        -1.832324
 H         0.131978         2.397222        -2.382348
 H         2.635760         0.896462        -3.158545
 H         4.085526         2.004149        -2.651068
 H         4.665058        -0.982182        -1.349780
 H         0.924182        -0.269514        -0.892572
 H         3.197746        -0.911496         1.045304
 H         2.091930         2.421979         0.831087
 H         3.771826         2.763105        -0.483213
