19
Iteration:  3892charge 0 multiplicity 1
 C         0.932848         2.967806        -1.783405
 C         1.972295         1.933892        -1.292190
 C         2.994827         1.389443        -2.363522
 C         3.137357         0.209626        -1.391308
 O         3.897496        -0.989143        -1.616531
 C         1.749992         0.406199        -0.806289
 C         2.957591         0.709245         0.066778
 O         3.469792        -0.053111         1.087239
 C         2.728365         2.240054         0.106752
 H        -0.034862         2.906713        -1.208073
 H         1.345308         4.005650        -2.024348
 H         0.506052         2.555718        -2.746959
 H         2.265608         1.057339        -3.144768
 H         3.830321         2.037576        -2.663549
 H         4.019216        -1.525962        -0.799077
 H         0.855835        -0.203441        -0.643857
 H         4.451643         0.084189         1.077757
 H         2.026675         2.380430         0.896700
 H         3.419269         3.028222        -0.097877
