19
Iteration:  3389
 C         0.804399         2.801953        -1.879261
 C         2.052083         2.020866        -1.261415
 C         3.093485         1.560449        -2.317636
 C         3.134120         0.168094        -1.453219
 O         3.816110        -1.038830        -1.710687
 C         1.796398         0.441568        -0.760879
 C         2.969701         0.701974         0.077701
 O         3.437926        -0.029132         1.161618
 C         2.763931         2.224416         0.115797
 H         0.203509         2.771984        -1.002832
 H         1.111889         3.889573        -2.088183
 H         0.431604         2.317040        -2.799430
 H         2.686333         1.291888        -3.308445
 H         4.003579         2.239823        -2.394705
 H         3.750323        -1.585870        -0.859643
 H         0.685525         0.125380        -0.547855
 H         4.388869        -0.308803         0.984640
 H         1.980928         2.297472         0.935587
 H         3.561890         2.944647         0.228159
