19
Iteration:  4819
 C         0.925067         2.827880        -1.800100
 C         1.889654         1.971509        -1.218128
 C         3.077932         1.463410        -2.334251
 C         3.192284         0.237538        -1.395193
 O         3.833075        -0.999279        -1.597607
 C         1.742512         0.401893        -0.861536
 C         2.982338         0.712397         0.094418
 O         3.532720        -0.016803         1.143655
 C         2.700896         2.151247         0.021039
 H        -0.010514         3.075806        -1.267304
 H         1.391902         3.889394        -1.905344
 H         0.654908         2.482630        -2.824517
 H         2.436095         1.263039        -3.266535
 H         4.038601         2.086179        -2.434628
 H         4.034945        -0.968362        -2.521102
 H         0.962948        -0.341914        -0.783740
 H         3.144728         0.333328         1.936923
 H         1.973173         2.411845         0.811483
 H         3.636203         2.756181         0.069052
