19
Iteration:  2302
 C         0.889399         2.956508        -1.755659
 C         2.000613         1.940555        -1.226466
 C         3.008610         1.433204        -2.292647
 C         3.113874         0.183210        -1.401808
 O         3.820536        -1.054895        -1.690016
 C         1.759442         0.443834        -0.849503
 C         3.018998         0.688983        -0.062211
 O         3.515396        -0.027812         1.146502
 C         2.747906         2.176392         0.036666
 H        -0.078033         2.883098        -1.112134
 H         1.249331         4.026171        -1.604327
 H         0.617127         2.659045        -2.863693
 H         2.428921         1.154798        -3.190727
 H         3.878168         2.131107        -2.583080
 H         4.696024        -1.010842        -1.296295
 H         0.963630        -0.202158        -0.336724
 H         2.844940         0.083067         1.829621
 H         2.232855         2.604537         0.992195
 H         3.568489         3.039866         0.090769
