19
Iteration:  3040charge 0 multiplicity 1
 C         0.877873         2.831761        -1.760954
 C         1.911889         1.977603        -1.231523
 C         3.124306         1.500333        -2.248940
 C         3.149116         0.181574        -1.432992
 O         3.709153        -1.048756        -1.752821
 C         1.726363         0.516659        -0.782833
 C         3.037371         0.630367         0.021153
 O         3.509651         0.097101         1.187591
 C         2.765379         2.136450         0.008322
 H         0.294001         3.098248        -0.912618
 H         1.379978         3.743172        -2.185823
 H         0.446115         2.426211        -2.704635
 H         2.706413         1.106303        -3.206806
 H         4.077788         2.175974        -2.065285
 H         4.670178        -0.854985        -1.724262
 H         0.918703        -0.292495        -0.632013
 H         3.026685        -0.676062         1.447389
 H         2.385796         2.445470         0.929123
 H         3.718061         2.687868        -0.150696
