19
Iteration:   778
 C         0.905043         2.907053        -1.776734
 C         1.987940         1.946181        -1.305556
 C         3.119734         1.415419        -2.300454
 C         3.099354         0.186809        -1.411496
 O         3.797147        -0.988107        -1.678312
 C         1.733155         0.352521        -0.759729
 C         2.893626         0.740090         0.101393
 O         3.659848        -0.028423         1.043317
 C         2.614680         2.202892         0.056989
 H         0.002451         3.092247        -1.101577
 H         1.340846         3.911465        -2.221315
 H         0.526680         2.490762        -2.723486
 H         2.676055         1.101459        -3.224432
 H         3.928216         2.174584        -2.278409
 H         4.661974        -0.968320        -1.139583
 H         0.922367        -0.272854        -0.532462
 H         3.254728         0.063177         1.897217
 H         1.903213         2.642638         0.736089
 H         3.471440         2.937708         0.106266
