19
Iteration:  3979charge 0 multiplicity 1
 C         0.902239         2.772642        -1.731889
 C         1.988353         1.949736        -1.297316
 C         3.069970         1.465545        -2.285878
 C         3.179601         0.191385        -1.425855
 O         3.742156        -0.936096        -1.705960
 C         1.814605         0.481821        -0.818437
 C         2.977178         0.720655         0.098934
 O         3.392662        -0.113561         1.175255
 C         2.805687         2.241759        -0.002509
 H         0.026795         3.027415        -1.099604
 H         1.243972         3.671293        -2.309295
 H         0.528014         2.028689        -2.450274
 H         2.359963         1.153403        -3.176240
 H         3.973886         2.028277        -2.624454
 H         4.249238        -1.174782        -0.887982
 H         1.012514        -0.302912        -0.785661
 H         3.984260         0.609960         1.585105
 H         2.173355         2.853400         0.691351
 H         3.673014         2.939131        -0.277359
