19
Iteration:  2510charge 0 multiplicity 1
 C         0.876989         2.877858        -1.647910
 C         2.024150         1.931378        -1.247568
 C         2.984798         1.472064        -2.337472
 C         3.175353         0.193192        -1.433921
 O         3.787492        -1.029853        -1.586892
 C         1.760648         0.450841        -0.840274
 C         2.953653         0.697439        -0.047246
 O         3.462567         0.008618         1.076904
 C         2.903839         2.195176        -0.001898
 H         0.131035         2.949986        -0.791654
 H         0.958540         3.891795        -1.965765
 H         0.387374         2.284987        -2.493833
 H         2.554933         1.243132        -3.314673
 H         3.779080         2.257470        -2.664941
 H         4.525004        -1.084546        -0.969825
 H         0.807311        -0.032606        -0.625852
 H         2.712396        -0.443939         1.561767
 H         2.378054         2.596325         0.897741
 H         3.855582         2.786771        -0.183982
