19
Iteration:  3122
 C         0.886013         2.925958        -1.689285
 C         1.901760         1.894326        -1.292068
 C         3.093175         1.405511        -2.336365
 C         3.103652         0.209790        -1.414886
 O         3.884971        -0.900302        -1.595976
 C         1.725352         0.347656        -0.800506
 C         2.886948         0.752606         0.084296
 O         3.483631        -0.156735         0.993582
 C         2.865453         2.271575        -0.029438
 H         0.058416         3.021636        -0.889752
 H         1.385616         3.882885        -1.803543
 H         0.313285         2.577069        -2.540237
 H         2.902253         1.343629        -3.450552
 H         4.058166         1.854344        -2.397841
 H         4.050383        -1.318973        -0.737606
 H         0.707322        -0.142841        -0.669332
 H         3.349109         0.220001         1.908152
 H         2.182656         2.826626         0.710939
 H         3.787115         2.878753        -0.144331
