19
Iteration:  2700charge 0 multiplicity 1
 C         0.914674         2.858902        -1.716405
 C         1.969856         1.895000        -1.279143
 C         3.037438         1.365515        -2.323842
 C         3.157447         0.260499        -1.332377
 O         3.724956        -0.957700        -1.780273
 C         1.768390         0.509247        -0.786213
 C         2.991639         0.684583         0.120449
 O         3.544000        -0.053595         1.138257
 C         2.775714         2.231009        -0.036698
 H         0.405672         3.276168        -0.853067
 H         1.474821         3.803363        -2.055147
 H         0.260604         2.459186        -2.453034
 H         2.773219         0.984638        -3.375750
 H         3.831067         2.119530        -2.614722
 H         4.229243        -1.415463        -1.034454
 H         1.009063        -0.290720        -0.692491
 H         2.918085        -0.282310         1.813186
 H         2.151518         2.806970         0.677538
 H         3.501923         2.987451        -0.275116
