19
Iteration:  1116charge 0 multiplicity 1
 C         0.885781         2.851650        -1.862321
 C         1.937038         1.951972        -1.246241
 C         3.040035         1.386180        -2.265553
 C         3.135234         0.294351        -1.391799
 O         3.749786        -1.028657        -1.607731
 C         1.825167         0.417480        -0.832585
 C         3.013141         0.740907         0.060013
 O         3.657030        -0.046330         1.052780
 C         2.661967         2.269761         0.068144
 H         0.076357         2.893633        -1.077363
 H         1.140205         3.952673        -1.997835
 H         0.435061         2.439806        -2.745350
 H         2.568137         1.182852        -3.266779
 H         3.885075         2.027207        -2.457674
 H         4.547450        -0.951762        -1.040976
 H         0.851730        -0.191734        -0.694625
 H         2.968983        -0.564795         1.531478
 H         1.803076         2.339034         0.809739
 H         3.482582         3.051387         0.077926
