19
Iteration:  4284
 C         0.924650         2.820729        -1.759047
 C         1.997695         1.903157        -1.348366
 C         3.051902         1.545198        -2.299648
 C         3.179062         0.262532        -1.384689
 O         3.899169        -0.947220        -1.544217
 C         1.793369         0.448734        -0.910011
 C         2.958240         0.715733         0.119057
 O         3.452527        -0.020505         1.114765
 C         2.708226         2.178561         0.037735
 H         0.289785         3.052095        -0.867268
 H         1.358047         3.828859        -2.147303
 H         0.251533         2.256343        -2.470429
 H         2.650183         0.950233        -3.121846
 H         3.863512         2.354697        -2.534181
 H         3.360871        -1.654594        -1.920106
 H         1.078314        -0.463175        -0.863524
 H         2.890596        -0.797908         1.343585
 H         1.970610         2.588199         0.751818
 H         3.552397         2.809659        -0.135031
