19
Iteration:  2141
 C         0.937275         2.924538        -1.639673
 C         1.923815         1.924544        -1.250256
 C         3.058291         1.433772        -2.335576
 C         3.125036         0.199150        -1.524865
 O         3.832195        -0.965215        -1.605874
 C         1.717004         0.407317        -0.851996
 C         2.953555         0.659555        -0.006523
 O         3.562248         0.030494         1.082778
 C         2.789784         2.115081         0.018277
 H         0.003564         2.996526        -1.009655
 H         1.207689         4.060042        -1.653521
 H         0.466342         2.497795        -2.546925
 H         2.456633         1.060201        -3.280640
 H         3.991924         2.036312        -2.621693
 H         4.158044        -1.184001        -0.748411
 H         0.818509        -0.183814        -0.903687
 H         2.947175         0.167913         1.859233
 H         2.175876         2.631356         0.893294
 H         3.653076         2.828761         0.078060
