19
Iteration:  2691
 C         0.852011         2.897493        -1.664653
 C         1.996099         1.887493        -1.330255
 C         3.092557         1.437121        -2.335813
 C         3.151811         0.189807        -1.410641
 O         3.729395        -1.001070        -1.743307
 C         1.746986         0.418621        -0.773727
 C         2.992407         0.731282         0.093228
 O         3.523531        -0.077655         1.176582
 C         2.843078         2.316967        -0.043684
 H         0.250102         3.139317        -0.817697
 H         1.318324         3.789056        -2.100539
 H         0.221254         2.513881        -2.464674
 H         2.553108         1.049448        -3.306336
 H         3.965483         2.183019        -2.564982
 H         4.506323        -1.154915        -1.124031
 H         0.744386        -0.113663        -0.535501
 H         2.821408        -0.241997         1.804544
 H         1.991507         2.644580         0.578166
 H         3.725306         2.828316        -0.200677
