19
Iteration:   392
 C         0.815565         2.850453        -1.650312
 C         1.973217         1.879955        -1.286415
 C         3.037381         1.496246        -2.299503
 C         3.189508         0.178430        -1.443467
 O         3.773068        -1.071714        -1.590157
 C         1.844999         0.413318        -0.825820
 C         3.071126         0.788812        -0.048787
 O         3.443298        -0.009542         1.074581
 C         2.785245         2.258133         0.016233
 H         0.135081         3.031015        -0.798849
 H         1.152208         3.849056        -1.977047
 H         0.121250         2.519803        -2.473357
 H         2.750802         1.464557        -3.394025
 H         3.997702         2.230245        -2.133629
 H         4.761134        -0.937212        -1.406443
 H         0.936164        -0.339967        -0.658710
 H         2.675145        -0.550479         1.371706
 H         1.993117         2.487064         0.759085
 H         3.653371         3.083223         0.031852
