19
Iteration:  4653charge 0 multiplicity 1
 C         0.983829         2.887326        -1.801425
 C         2.010634         1.919383        -1.299858
 C         3.087877         1.384915        -2.263161
 C         3.193872         0.280528        -1.384941
 O         3.754115        -0.929809        -1.591939
 C         1.769590         0.403440        -0.858748
 C         2.833237         0.679500         0.113388
 O         3.615209        -0.028241         1.046228
 C         2.607522         2.194661         0.055895
 H         0.134426         2.993495        -1.082069
 H         1.292322         3.957959        -1.865821
 H         0.586805         2.582243        -2.827810
 H         2.578874         1.041713        -3.231930
 H         3.864655         2.178102        -2.516909
 H         4.693922        -0.818474        -1.415693
 H         1.032981        -0.479553        -0.779492
 H         3.003387        -0.570021         1.558587
 H         1.871874         2.480482         0.767721
 H         3.435176         2.893112         0.010040
