19
Iteration:  4268charge 0 multiplicity 1
 C         0.824048         2.891280        -1.717549
 C         1.981692         1.989923        -1.273808
 C         3.104089         1.352633        -2.366619
 C         3.299723         0.240806        -1.366346
 O         3.962824        -0.961778        -1.586147
 C         1.779873         0.385392        -0.874994
 C         2.903666         0.716963         0.050766
 O         3.411584        -0.015830         1.167972
 C         2.718012         2.263097         0.015669
 H         0.161816         3.094770        -0.870499
 H         1.216952         3.745544        -2.189345
 H         0.176914         2.482681        -2.494849
 H         2.580052         1.279819        -3.311559
 H         3.968353         1.921199        -2.627389
 H         3.301737        -1.488565        -2.002377
 H         0.836053        -0.034617        -0.912781
 H         3.046328        -0.900803         1.091675
 H         1.981850         2.479884         0.818095
 H         3.659618         2.913079         0.211698
