19
Iteration:  2848charge 0 multiplicity 1
 C         0.874829         2.910448        -1.654444
 C         2.028210         1.939502        -1.331950
 C         3.045540         1.418667        -2.350596
 C         3.198639         0.188089        -1.382947
 O         3.728494        -1.008325        -1.747364
 C         1.735229         0.496033        -0.834716
 C         2.970961         0.735258         0.134381
 O         3.501592        -0.025137         1.256786
 C         2.814725         2.199837        -0.070119
 H         0.171112         2.932933        -0.781816
 H         1.164493         3.865426        -1.925899
 H         0.208304         2.491343        -2.412051
 H         2.547133         0.884335        -3.158069
 H         4.018011         2.027516        -2.419000
 H         4.677130        -1.080655        -1.690095
 H         0.778174        -0.083545        -0.675761
 H         3.192505        -0.968769         1.184121
 H         2.152095         2.953489         0.403539
 H         3.632012         2.788628        -0.169345
