19
Iteration:  1525
 C         0.791299         2.870471        -1.651876
 C         1.916508         1.931171        -1.331839
 C         3.024567         1.417684        -2.332068
 C         3.149870         0.211080        -1.362164
 O         3.939758        -0.883281        -1.665714
 C         1.733677         0.414941        -0.906771
 C         3.010266         0.725166         0.123003
 O         3.373425        -0.135991         1.237680
 C         2.894785         2.261207        -0.088361
 H         0.220796         3.232334        -0.753344
 H         1.297107         3.727868        -2.118505
 H        -0.021916         2.671050        -2.379605
 H         2.617623         0.686845        -3.215402
 H         3.852068         2.207771        -2.560418
 H         3.501940        -1.640521        -1.271296
 H         0.880642        -0.246444        -0.953593
 H         4.310163        -0.142554         1.074266
 H         2.441491         3.010334         0.578102
 H         3.875594         2.747462        -0.326150
