19
Iteration:  3337charge 0 multiplicity 1
 C         0.835815         2.905165        -1.771580
 C         1.892714         1.945069        -1.270607
 C         3.089566         1.447666        -2.297151
 C         3.169530         0.211727        -1.405753
 O         3.879778        -0.978177        -1.724797
 C         1.768447         0.486069        -0.820039
 C         2.950749         0.737419         0.153504
 O         3.392829        -0.146298         1.163502
 C         2.816206         2.224555        -0.072175
 H         0.114612         3.088847        -0.914358
 H         1.336786         3.789698        -2.152485
 H         0.139241         2.352130        -2.421437
 H         2.811449         1.327192        -3.299167
 H         3.957218         2.100593        -2.238946
 H         4.012172        -1.523725        -0.910726
 H         1.050501        -0.375733        -0.619164
 H         4.325606         0.055807         1.478222
 H         2.122224         2.664720         0.696283
 H         3.725273         2.943681        -0.218621
