19
Iteration:  1711
 C         0.895453         2.929101        -1.718725
 C         1.977166         1.932475        -1.241880
 C         2.983610         1.433782        -2.314860
 C         3.101794         0.167178        -1.460932
 O         3.876141        -0.970251        -1.699620
 C         1.727131         0.445853        -0.750894
 C         3.038909         0.709006        -0.049468
 O         3.476953        -0.055519         1.172423
 C         2.789947         2.206489         0.004958
 H         0.074877         3.159306        -0.977479
 H         1.278512         3.792016        -2.349849
 H         0.486110         2.254002        -2.513443
 H         2.507572         1.183855        -3.279459
 H         3.938972         1.867805        -2.253482
 H         4.740923        -0.797950        -1.353825
 H         0.881868        -0.070634        -0.331807
 H         2.770834        -0.414516         1.680635
 H         2.151104         2.474326         0.907661
 H         3.594198         3.002418        -0.098606
