19
Iteration:  4128charge 0 multiplicity 1
 C         0.865826         2.869547        -1.723729
 C         1.965638         1.866262        -1.392389
 C         3.096613         1.461798        -2.250506
 C         3.159581         0.235770        -1.371448
 O         3.919067        -0.929903        -1.651713
 C         1.693201         0.512007        -0.891166
 C         2.980661         0.665900         0.083541
 O         3.448653         0.015634         1.253869
 C         2.778280         2.187390         0.044823
 H        -0.013718         3.035376        -1.056650
 H         1.205686         3.699723        -2.401147
 H         0.311832         2.298649        -2.593128
 H         2.912895         1.005081        -3.205762
 H         3.964683         2.158089        -2.546367
 H         3.336075        -1.683555        -1.714930
 H         0.783311        -0.047070        -1.156214
 H         3.702772        -0.867541         0.963908
 H         2.111870         2.541532         0.845865
 H         3.570079         2.840876        -0.127037
