19
Iteration:  2074
 C         0.876347         2.786276        -1.883353
 C         1.975331         1.976129        -1.217576
 C         2.993039         1.518602        -2.239999
 C         3.119775         0.254851        -1.459895
 O         3.785236        -1.034929        -1.666078
 C         1.735003         0.491568        -0.762320
 C         3.004639         0.749152         0.042657
 O         3.556951        -0.082073         0.977160
 C         2.819618         2.221001         0.153024
 H         0.000766         3.020980        -1.224101
 H         1.350862         3.728001        -2.242157
 H         0.515642         2.071733        -2.605433
 H         2.545301         1.198376        -3.248033
 H         3.934225         2.147349        -2.348524
 H         4.303544        -1.130953        -0.792335
 H         0.903785        -0.092372        -0.503562
 H         2.883097        -0.123670         1.638772
 H         2.232387         2.232424         1.179360
 H         3.812389         2.777165         0.185144
