19
Iteration:  1793
 C         0.857393         2.844183        -1.740842
 C         1.960038         1.999773        -1.225706
 C         3.172900         1.468417        -2.173888
 C         3.130822         0.161461        -1.433575
 O         3.751134        -1.061483        -1.664620
 C         1.752939         0.415566        -0.828667
 C         2.993745         0.718328        -0.008748
 O         3.569501        -0.019237         0.973602
 C         2.698774         2.274929         0.037577
 H        -0.038001         2.968869        -1.169212
 H         1.206241         3.864940        -1.700573
 H         0.442267         2.680031        -2.728995
 H         2.872602         1.301246        -3.205164
 H         4.138198         1.983083        -2.323876
 H         4.112057        -1.268728        -0.795471
 H         0.913751        -0.299877        -0.437127
 H         3.002039        -0.037471         1.780933
 H         2.149895         2.519348         0.897021
 H         3.514341         2.911090        -0.168964
