19
Iteration:   771
 C         0.914979         2.892744        -1.845580
 C         1.963574         1.911348        -1.266407
 C         3.052916         1.484341        -2.286532
 C         3.128220         0.206268        -1.366512
 O         3.801479        -0.984352        -1.677636
 C         1.707722         0.381798        -0.735547
 C         2.978334         0.674942         0.065143
 O         3.602069         0.010699         1.026790
 C         2.691345         2.159044         0.045916
 H         0.186082         3.027297        -1.077313
 H         1.425060         3.796860        -1.988896
 H         0.494299         2.450737        -2.746236
 H         2.673860         1.217933        -3.281488
 H         3.897858         2.196060        -2.275785
 H         4.582182        -1.029454        -1.082951
 H         0.869211        -0.243427        -0.494617
 H         3.139776         0.228065         1.853017
 H         1.869130         2.393235         0.753639
 H         3.403197         2.937321         0.038252
