19
Iteration:  4574charge 0 multiplicity 1
 C         0.816430         2.795914        -1.714745
 C         2.060210         1.954134        -1.395727
 C         3.138194         1.456100        -2.357679
 C         3.174632         0.276604        -1.311843
 O         3.922739        -0.868889        -1.681573
 C         1.664579         0.469247        -0.817377
 C         2.934148         0.713193         0.091630
 O         3.351329        -0.258930         1.185623
 C         2.795319         2.256171        -0.050738
 H        -0.001427         3.034450        -0.881569
 H         1.099744         3.758358        -2.185904
 H         0.191056         2.392410        -2.575288
 H         2.610127         1.093157        -3.238252
 H         4.160471         1.874836        -2.818157
 H         4.551576        -1.077225        -0.903390
 H         0.735445         0.031209        -0.778020
 H         3.712053         0.318341         1.889948
 H         2.144613         2.527395         0.735666
 H         3.647523         2.955984        -0.016605
