19
Iteration:  1614charge 0 multiplicity 1
 C         0.888978         2.800418        -1.808047
 C         2.002347         1.960875        -1.259741
 C         3.031550         1.411550        -2.257288
 C         3.169306         0.258280        -1.363530
 O         3.701897        -0.960875        -1.644697
 C         1.725002         0.490813        -0.871554
 C         2.894089         0.687939         0.028105
 O         3.645871        -0.081009         1.022809
 C         2.763959         2.222469         0.141340
 H         0.072969         2.677920        -1.084335
 H         1.254496         3.820740        -1.927513
 H         0.445560         2.491046        -2.716867
 H         2.670985         0.852878        -3.229741
 H         3.892597         2.162539        -2.381434
 H         4.469067        -0.998123        -1.085113
 H         0.734185        -0.052293        -1.076360
 H         3.580391         0.307955         1.883232
 H         2.146502         2.639909         0.913461
 H         3.704850         2.703051        -0.043101
