19
Iteration:  4260charge 0 multiplicity 1
 C         0.786994         2.919774        -1.752388
 C         1.971637         1.950296        -1.282772
 C         3.166109         1.323058        -2.396552
 C         3.223610         0.191535        -1.454490
 O         3.966005        -0.942947        -1.594149
 C         1.786781         0.473285        -0.836934
 C         2.970101         0.716794         0.099272
 O         3.355750         0.010592         1.178147
 C         2.708712         2.248120         0.050305
 H         0.208244         3.116589        -0.816791
 H         1.221409         3.955238        -1.961125
 H         0.055638         2.375354        -2.452081
 H         2.645746         0.946002        -3.271106
 H         4.017249         2.100586        -2.464646
 H         3.608519        -1.591574        -2.195609
 H         0.906785        -0.189556        -0.781959
 H         3.300816        -0.922560         1.030100
 H         2.051394         2.468011         0.941704
 H         3.715804         2.721918         0.134419
