19
Iteration:  4439charge 0 multiplicity 1
 C         0.774864         2.845028        -1.850983
 C         1.974267         1.953347        -1.266264
 C         3.078396         1.515546        -2.256800
 C         3.195890         0.233132        -1.354409
 O         3.975591        -0.959861        -1.457465
 C         1.779915         0.417292        -0.916268
 C         2.895984         0.677716         0.060380
 O         3.428196        -0.067260         1.099052
 C         2.782258         2.249496         0.039703
 H         0.136932         3.114590        -0.981958
 H         1.053704         3.881513        -2.139937
 H         0.319809         2.294785        -2.669657
 H         2.705778         1.029577        -3.122549
 H         3.764361         2.323641        -2.611218
 H         3.834734        -1.302551        -2.361681
 H         0.901658        -0.189076        -0.969721
 H         3.428413        -1.007198         0.942566
 H         2.140151         2.684554         0.855319
 H         3.721243         2.835836        -0.036980
