19
Iteration:   579
 C         0.831726         2.798517        -1.751357
 C         1.968194         1.916455        -1.282956
 C         3.060730         1.417995        -2.318057
 C         3.288849         0.353380        -1.302464
 O         3.779708        -0.946220        -1.744918
 C         1.741754         0.474469        -0.854218
 C         2.933047         0.735536         0.146988
 O         3.567429        -0.089790         1.132979
 C         2.745952         2.215782        -0.037532
 H         0.054114         2.930837        -0.956589
 H         1.275895         3.833331        -2.064059
 H         0.344493         2.330726        -2.650914
 H         2.532262         1.126720        -3.171728
 H         3.812512         2.061759        -2.633972
 H         3.843187        -1.635654        -1.029378
 H         1.016013        -0.208375        -0.922857
 H         3.002039        -0.155136         1.960939
 H         2.284086         2.496597         0.835518
 H         3.684751         2.780786        -0.166828
