19
Iteration:  2015charge 0 multiplicity 1
 C         0.896967         2.974828        -1.562299
 C         1.905962         1.909423        -1.312904
 C         3.065651         1.395328        -2.284442
 C         3.199286         0.164291        -1.431125
 O         3.970398        -1.029095        -1.684551
 C         1.734702         0.390963        -0.817582
 C         2.980419         0.772380        -0.017918
 O         3.443196        -0.039022         1.048128
 C         2.729674         2.224689        -0.057360
 H         0.411635         3.276024        -0.584675
 H         1.163585         3.872347        -2.158834
 H         0.022135         2.657636        -2.280112
 H         2.558818         1.110792        -3.192374
 H         3.969382         2.069099        -2.472147
 H         4.003611        -1.255956        -0.753936
 H         0.742026        -0.200020        -0.531292
 H         2.803126         0.028735         1.823527
 H         2.115558         2.538083         0.867893
 H         3.690816         2.930539        -0.127947
