19
Iteration:  3993
 C         0.832857         2.817749        -1.864183
 C         1.965838         1.941885        -1.271568
 C         3.020495         1.455723        -2.326387
 C         3.239781         0.314998        -1.329354
 O         3.746031        -1.064545        -1.711750
 C         1.820674         0.412055        -0.787366
 C         2.984660         0.769271         0.106477
 O         3.409516        -0.091145         1.142552
 C         2.810151         2.270353         0.029916
 H         0.198232         3.142153        -0.966727
 H         1.230619         3.818605        -2.178813
 H         0.237234         2.436463        -2.730422
 H         2.671281         1.122478        -3.257712
 H         3.800913         2.233415        -2.444099
 H         4.416948        -1.337847        -1.085376
 H         0.975997        -0.232392        -0.820822
 H         4.184491         0.070118         1.661503
 H         2.241404         2.549449         0.858804
 H         3.691667         2.825935        -0.003824
