19
Iteration:  3311charge 0 multiplicity 1
 C         0.946002         2.902988        -1.715294
 C         2.009705         1.924782        -1.299021
 C         2.964279         1.359117        -2.293455
 C         3.149211         0.190088        -1.451572
 O         3.942530        -0.892822        -1.678246
 C         1.706226         0.418993        -0.805089
 C         2.928171         0.734487         0.024461
 O         3.334349         0.012426         1.098037
 C         2.827906         2.119648         0.064501
 H         0.225163         3.002219        -0.964804
 H         1.497972         3.854516        -1.988912
 H         0.261725         2.431936        -2.430826
 H         2.419965         1.166157        -3.240558
 H         3.817205         2.011634        -2.567327
 H         4.288882        -1.218692        -0.840927
 H         0.809327        -0.188364        -0.564935
 H         4.293880        -0.011142         1.312489
 H         2.056781         2.559019         0.733155
 H         3.755427         2.606575         0.153219
