19
Iteration:   456
 C         0.866229         2.905529        -1.813892
 C         1.849409         1.933081        -1.228017
 C         3.099507         1.464656        -2.233692
 C         3.188597         0.204543        -1.462100
 O         3.795308        -0.999637        -1.744564
 C         1.812227         0.389796        -0.743337
 C         2.915752         0.694376         0.066492
 O         3.590709        -0.031312         1.051589
 C         2.717545         2.202441         0.032859
 H        -0.124611         2.971804        -1.225007
 H         1.310925         3.887265        -2.146696
 H         0.537049         2.449402        -2.854785
 H         2.741451         1.603392        -3.265594
 H         3.986243         2.039620        -2.013889
 H         4.229474        -1.443160        -0.963810
 H         0.841244        -0.199788        -0.197800
 H         3.323274         0.384680         1.922050
 H         2.161766         2.477817         0.879016
 H         3.667025         2.712879         0.139540
