19
Iteration:  4195
 C         0.876285         2.941635        -1.882751
 C         1.979081         1.983409        -1.312813
 C         3.069446         1.419185        -2.298499
 C         3.158331         0.216108        -1.399319
 O         3.868544        -0.913054        -1.565398
 C         1.774229         0.452878        -0.797648
 C         3.017989         0.674851         0.085736
 O         3.447663        -0.149447         1.145470
 C         2.736321         2.172698         0.066103
 H         0.012291         2.766910        -1.205663
 H         1.077401         4.061315        -2.083480
 H         0.386259         2.494337        -2.830360
 H         2.696066         0.919514        -3.219625
 H         3.775523         2.284933        -2.622241
 H         3.444014        -1.580401        -2.123266
 H         0.939309        -0.126448        -0.575033
 H         4.088344         0.384658         1.684929
 H         1.890738         2.497172         0.702711
 H         3.536652         2.892237         0.087711
