19
Iteration:  2504charge 0 multiplicity 1
 C         0.869380         2.847773        -1.621230
 C         1.947917         1.954198        -1.246121
 C         3.032504         1.448023        -2.320377
 C         3.207005         0.239233        -1.455897
 O         3.774072        -1.028938        -1.604402
 C         1.752481         0.498273        -0.849185
 C         2.985245         0.699115         0.024318
 O         3.460796         0.016223         1.093002
 C         2.898171         2.179427        -0.051509
 H         0.174674         2.817882        -0.807166
 H         1.103419         3.911441        -1.935028
 H         0.427790         2.409363        -2.495870
 H         2.421168         1.159814        -3.234728
 H         3.854574         2.020500        -2.690312
 H         4.539459        -1.020643        -0.953039
 H         0.739191         0.005483        -0.798113
 H         2.770175        -0.539021         1.506778
 H         2.249797         2.462643         0.782728
 H         3.892026         2.513569        -0.336255
