19
Iteration:  4584charge 0 multiplicity 1
 C         0.860990         2.778993        -1.764695
 C         1.961258         1.935327        -1.276888
 C         3.122183         1.431338        -2.383928
 C         3.137071         0.273855        -1.402202
 O         3.904449        -0.841145        -1.629499
 C         1.728447         0.504341        -0.865866
 C         2.920069         0.642524         0.159154
 O         3.389977        -0.179886         1.114979
 C         2.800521         2.211144        -0.046520
 H         0.355327         3.070047        -0.756920
 H         1.267420         3.743909        -2.061280
 H         0.209745         2.275116        -2.509076
 H         2.664110         1.168940        -3.333447
 H         4.164535         2.037478        -2.524339
 H         4.448616        -1.108721        -0.816940
 H         0.833351        -0.003984        -0.808577
 H         3.394104         0.239668         2.019923
 H         2.081735         2.655252         0.673590
 H         3.740317         2.850168        -0.068201
