19
Iteration:   226charge 0 multiplicity 1
 C         0.819720         2.891123        -1.766243
 C         1.846030         1.910454        -1.347106
 C         3.064864         1.482033        -2.263263
 C         3.195856         0.224160        -1.345269
 O         3.828083        -0.994797        -1.719724
 C         1.752156         0.432535        -0.687229
 C         3.069243         0.708839         0.075264
 O         3.548098        -0.120954         1.143542
 C         2.758320         2.307850        -0.113855
 H         0.139908         2.944941        -0.914729
 H         1.363370         3.786507        -1.880328
 H         0.286383         2.701288        -2.677908
 H         2.725166         1.244116        -3.252964
 H         3.862895         2.246352        -2.179092
 H         4.253858        -1.356919        -0.961651
 H         0.992061        -0.151415        -0.559321
 H         2.705948        -0.666785         1.251337
 H         2.157791         2.518057         0.740683
 H         3.664305         3.026639        -0.360272
