19
Iteration:  3873charge 0 multiplicity 1
 C         0.895127         2.871590        -1.847621
 C         1.909579         1.968484        -1.297177
 C         3.069784         1.346674        -2.204859
 C         3.101960         0.190238        -1.344513
 O         3.836965        -0.907540        -1.700427
 C         1.662700         0.463656        -0.847389
 C         2.999206         0.678207         0.051476
 O         3.557877        -0.056757         1.122430
 C         2.735280         2.233184         0.014673
 H        -0.000691         3.001888        -1.145089
 H         1.452326         3.796223        -1.970795
 H         0.476799         2.728051        -2.870871
 H         2.736445         1.130985        -3.182318
 H         4.047904         1.884190        -2.160247
 H         3.871582        -1.634268        -1.008670
 H         0.763032        -0.060566        -0.412237
 H         4.479019         0.059046         1.499608
 H         1.957993         2.498616         0.780703
 H         3.650573         2.926874         0.034685
