19
Iteration:  2402
 C         0.882757         2.866639        -1.762261
 C         1.947737         1.957617        -1.309613
 C         3.083893         1.403122        -2.231488
 C         3.143071         0.232129        -1.277381
 O         3.720767        -0.951612        -1.655916
 C         1.739976         0.446396        -0.832172
 C         3.000208         0.773127         0.077200
 O         3.620493        -0.155735         0.986430
 C         2.702024         2.242764        -0.003382
 H         0.333728         3.415453        -0.947932
 H         1.517620         3.630356        -2.236530
 H         0.107078         2.414340        -2.297411
 H         2.656984         1.067022        -3.208716
 H         4.029016         1.899800        -2.196157
 H         4.512857        -1.180517        -1.190695
 H         0.921708        -0.187690        -0.908021
 H         3.088525        -0.139583         1.778218
 H         1.973968         2.682322         0.794774
 H         3.642245         2.977343        -0.194856
