19
Iteration:  4172charge 0 multiplicity 1
 C         0.953403         2.830112        -1.817911
 C         1.953272         1.903476        -1.187885
 C         3.096630         1.417156        -2.327821
 C         3.173059         0.206191        -1.407402
 O         3.881505        -1.001995        -1.626330
 C         1.764079         0.407806        -0.812892
 C         2.999068         0.769409         0.063867
 O         3.414579        -0.047323         1.066448
 C         2.655232         2.289058         0.075846
 H         0.069922         2.991574        -1.129068
 H         1.541940         3.819817        -1.922197
 H         0.412183         2.655375        -2.835207
 H         2.753826         1.371854        -3.376114
 H         3.993952         2.213389        -2.321510
 H         3.278804        -1.725028        -1.821282
 H         0.889022        -0.160237        -0.662504
 H         4.157198         0.294298         1.535802
 H         1.847325         2.364379         0.836331
 H         3.423714         3.007065         0.243566
