19
Iteration:  1075
 C         0.867135         2.925127        -1.732971
 C         1.903123         1.921440        -1.312263
 C         2.997196         1.396808        -2.242645
 C         3.145666         0.175345        -1.358364
 O         3.914753        -0.900842        -1.529001
 C         1.728862         0.353627        -0.876381
 C         2.933832         0.717743        -0.015158
 O         3.536401        -0.063012         0.982234
 C         2.772585         2.204172         0.007384
 H         0.177629         3.370980        -1.003137
 H         1.263267         3.837168        -2.204366
 H         0.236914         2.485698        -2.546468
 H         2.391227         1.184194        -3.119729
 H         3.955622         2.078554        -2.328758
 H         4.518475        -1.199808        -0.803120
 H         0.842320        -0.356734        -0.801199
 H         3.512640         0.284953         1.897796
 H         2.237336         2.554713         0.854126
 H         3.706425         2.772687        -0.220871
