19
Iteration:  2720charge 0 multiplicity 1
 C         0.893380         2.970291        -1.861504
 C         1.981215         1.897397        -1.258185
 C         3.006269         1.389012        -2.235507
 C         3.172656         0.248736        -1.351523
 O         3.759336        -0.937332        -1.746147
 C         1.718585         0.340425        -0.730807
 C         3.011939         0.708189         0.049698
 O         3.603406        -0.022403         1.078754
 C         2.788443         2.220067         0.084811
 H         0.261756         3.449871        -1.056472
 H         1.445910         3.874334        -2.335335
 H         0.343494         2.422485        -2.602113
 H         2.470874         1.126844        -3.130615
 H         3.709666         1.958238        -2.754066
 H         3.562487        -1.644064        -1.095482
 H         0.932679        -0.385100        -0.863471
 H         3.003230        -0.065284         1.826597
 H         2.012414         2.477427         0.809507
 H         3.832463         2.780732         0.130964
