19
Iteration:  4680
 C         0.822026         2.866579        -1.867454
 C         1.957597         1.935061        -1.272168
 C         3.104417         1.516212        -2.249944
 C         3.189409         0.214933        -1.449357
 O         3.813703        -1.055344        -1.645868
 C         1.738832         0.423699        -0.884008
 C         2.973131         0.639524         0.091899
 O         3.492261        -0.053831         1.163874
 C         2.791952         2.244808         0.081996
 H        -0.067130         2.879188        -1.197597
 H         1.169663         3.925534        -1.810994
 H         0.484190         2.623230        -2.854762
 H         2.681725         1.255455        -3.208902
 H         3.752262         2.347764        -2.189203
 H         4.743143        -0.777424        -1.658383
 H         0.991266        -0.288667        -0.853975
 H         2.905405         0.285615         1.860530
 H         2.081081         2.407258         0.947809
 H         3.676541         2.914842        -0.116339
