19
Iteration:  2386charge 0 multiplicity 1
 C         0.871448         2.895570        -1.736099
 C         1.971021         1.918486        -1.255971
 C         3.114735         1.443950        -2.251964
 C         3.143720         0.215121        -1.418672
 O         3.777037        -1.010405        -1.639293
 C         1.741162         0.452917        -0.827594
 C         3.018727         0.728929         0.040398
 O         3.524808        -0.111065         0.971577
 C         2.764431         2.278897         0.042493
 H         0.397687         3.270146        -0.840404
 H         0.981370         3.668823        -2.479551
 H         0.075802         2.308670        -2.326966
 H         2.743480         1.164669        -3.239982
 H         4.001899         2.137677        -2.488366
 H         4.145803        -1.138300        -0.738079
 H         0.925218        -0.134549        -0.308668
 H         3.100703         0.114529         1.834363
 H         2.007415         2.299399         0.798365
 H         3.533592         2.968055        -0.032123
