19
Iteration:  4530
 C         0.943087         2.809822        -1.763472
 C         1.928745         1.895530        -1.278936
 C         3.076348         1.504852        -2.260382
 C         3.202305         0.241199        -1.495792
 O         3.888167        -0.920490        -1.642657
 C         1.795192         0.409712        -0.855002
 C         3.028405         0.647487         0.007190
 O         3.315736        -0.006182         1.208671
 C         2.691835         2.207134        -0.001807
 H         0.115840         2.885002        -0.924002
 H         1.257840         3.849790        -1.891257
 H         0.588085         2.373931        -2.744224
 H         2.887057         1.288648        -3.286138
 H         3.698583         2.449008        -2.280031
 H         3.623279        -1.554654        -0.893917
 H         1.029949        -0.291056        -0.625279
 H         4.271060        -0.282278         1.199850
 H         2.044557         2.487875         0.780094
 H         3.466715         2.960052         0.002721
