19
Iteration:  2254charge 0 multiplicity 1
 C         0.836192         2.876441        -1.747233
 C         1.993284         1.926165        -1.361488
 C         3.146658         1.470389        -2.201595
 C         3.178388         0.242765        -1.274250
 O         3.648396        -1.017223        -1.681677
 C         1.764432         0.428127        -0.859753
 C         2.954980         0.711070         0.069640
 O         3.653307        -0.091276         1.012770
 C         2.666243         2.255590        -0.036684
 H         0.163654         3.054171        -0.890639
 H         1.233527         3.864571        -2.001651
 H         0.221875         2.495404        -2.654504
 H         2.914557         1.220609        -3.247753
 H         4.154189         2.007745        -2.154880
 H         4.509691        -1.148654        -1.138820
 H         0.844629        -0.007010        -0.555830
 H         3.287802        -0.257931         1.939002
 H         2.038064         2.590164         0.863277
 H         3.560893         2.912078         0.086385
