19
Iteration:  4802charge 0 multiplicity 1
 C         0.929330         2.950332        -1.887251
 C         1.982918         1.919333        -1.375423
 C         2.994103         1.411869        -2.321711
 C         3.178458         0.175444        -1.334708
 O         3.873706        -0.865154        -1.565635
 C         1.742659         0.428343        -0.802069
 C         2.991084         0.625838         0.063420
 O         3.592026        -0.055260         1.128989
 C         2.677786         2.172015         0.137177
 H         0.108627         2.961650        -1.128896
 H         1.403932         3.892636        -2.046321
 H         0.336363         2.673578        -2.748441
 H         2.509047         0.968679        -3.170261
 H         3.766736         2.142334        -2.529275
 H         3.642508        -1.242630        -2.398928
 H         0.780878        -0.208352        -0.851814
 H         3.072710        -0.227366         1.897600
 H         1.807049         2.475683         0.777874
 H         3.419735         3.018807         0.057560
