19
Iteration:  4154
 C         0.883338         2.895337        -1.773484
 C         1.993509         1.908919        -1.401383
 C         3.125405         1.463918        -2.215710
 C         3.153509         0.227138        -1.407911
 O         3.856905        -0.960454        -1.665243
 C         1.840795         0.332330        -0.823409
 C         2.892505         0.747541         0.095596
 O         3.406449        -0.000016         1.163011
 C         2.687457         2.202450         0.080860
 H         0.130320         3.021586        -1.040297
 H         1.315479         3.783303        -2.198386
 H         0.378610         2.562400        -2.655162
 H         2.830141         1.343838        -3.282748
 H         4.064614         1.874897        -2.311430
 H         3.208384        -1.658737        -1.679405
 H         1.111573        -0.434282        -0.619208
 H         4.334195         0.024098         0.967069
 H         2.122931         2.631028         0.946566
 H         3.608333         2.817095        -0.122005
