19
Iteration:  4067charge 0 multiplicity 1
 C         0.796574         2.960749        -1.786378
 C         1.962853         1.926778        -1.378287
 C         3.115591         1.437475        -2.269327
 C         3.168789         0.214677        -1.333573
 O         3.841095        -0.978875        -1.564011
 C         1.733722         0.380605        -0.826637
 C         2.950824         0.672061         0.067011
 O         3.488055        -0.002541         1.178273
 C         2.760540         2.219251        -0.005322
 H        -0.001930         3.007688        -1.045203
 H         1.115914         3.994352        -1.964474
 H         0.393165         2.552451        -2.704799
 H         2.659438         1.033130        -3.256266
 H         4.040449         2.033074        -2.441258
 H         4.457639        -1.080492        -2.304424
 H         0.913174        -0.262156        -0.853026
 H         3.684796        -0.952977         1.028013
 H         2.157021         2.622709         0.852679
 H         3.684661         2.945227        -0.117835
