19
Iteration:  1580
 C         0.863211         2.911715        -1.891129
 C         1.887526         1.917081        -1.255336
 C         3.060354         1.494731        -2.202003
 C         3.146806         0.253046        -1.429436
 O         3.731526        -1.036150        -1.692182
 C         1.779928         0.403585        -0.723182
 C         3.072551         0.727472         0.046484
 O         3.583466        -0.167003         1.092969
 C         2.664648         2.254102         0.012858
 H         0.097966         3.187961        -1.149248
 H         1.339818         3.893641        -1.970485
 H         0.525649         2.567246        -2.857982
 H         2.849476         1.357630        -3.350418
 H         3.865482         2.295691        -2.156741
 H         4.152336        -1.335760        -0.851117
 H         0.886265        -0.282735        -0.509077
 H         4.164009         0.473362         1.531762
 H         2.107377         2.509682         0.906960
 H         3.505950         2.956964        -0.093294
