19
Iteration:  2645charge 0 multiplicity 1
 C         0.842768         2.807570        -1.643636
 C         2.034027         1.968987        -1.339844
 C         3.003912         1.425882        -2.367603
 C         3.165901         0.252069        -1.384459
 O         3.696284        -1.019053        -1.575717
 C         1.817547         0.460298        -0.851495
 C         2.989214         0.753067         0.105303
 O         3.472855        -0.079930         1.072293
 C         2.875485         2.249306        -0.039406
 H         0.209414         2.626107        -0.789588
 H         1.194679         3.880416        -1.580776
 H         0.365567         2.641481        -2.567598
 H         2.618303         1.135866        -3.422686
 H         4.004407         2.018459        -2.568188
 H         4.669545        -0.981385        -1.721741
 H         0.870438         0.050932        -0.754804
 H         2.831240        -0.147279         1.831105
 H         2.269282         2.564983         0.812037
 H         3.751956         2.711487        -0.311830
