19
Iteration:  1904charge 0 multiplicity 1
 C         0.850189         2.836395        -1.760567
 C         1.996106         1.954586        -1.265633
 C         3.106835         1.451071        -2.320586
 C         3.252189         0.319729        -1.363040
 O         3.699122        -1.015193        -1.677819
 C         1.756805         0.452904        -0.875167
 C         2.901893         0.679598         0.099784
 O         3.614327        -0.027150         1.031051
 C         2.727602         2.182756         0.097700
 H         0.260622         3.003271        -0.830921
 H         1.237741         3.831825        -2.026374
 H         0.298097         2.197462        -2.499208
 H         2.556509         1.321934        -3.261395
 H         3.937446         2.179218        -2.584166
 H         3.982153        -1.478719        -0.834500
 H         0.987248        -0.184867        -1.068422
 H         3.162974        -0.244140         1.841199
 H         2.100445         2.674510         0.794836
 H         3.606213         2.779812         0.077902
