19
Iteration:  2647charge 0 multiplicity 1
 C         0.841247         2.802158        -1.630016
 C         2.015240         1.966462        -1.336066
 C         3.014287         1.429770        -2.360067
 C         3.163313         0.261529        -1.376294
 O         3.704438        -1.024092        -1.570124
 C         1.808928         0.456456        -0.859580
 C         2.989117         0.750777         0.091402
 O         3.469142        -0.071813         1.070505
 C         2.888331         2.240318        -0.053376
 H         0.196207         2.690064        -0.807874
 H         1.187169         3.841074        -1.557777
 H         0.406462         2.578960        -2.589371
 H         2.649114         1.189640        -3.405513
 H         3.993141         1.988920        -2.660444
 H         4.691204        -1.018706        -1.745865
 H         0.773431         0.103031        -0.733480
 H         2.795854        -0.103545         1.750678
 H         2.297530         2.533871         0.884097
 H         3.824221         2.764593        -0.234876
