19
Iteration:  1694charge 0 multiplicity 1
 C         0.866052         2.847419        -1.720067
 C         1.986548         1.968640        -1.278082
 C         2.972340         1.351377        -2.395647
 C         3.110828         0.190159        -1.414283
 O         3.890189        -0.891174        -1.731345
 C         1.734170         0.456475        -0.840952
 C         2.973082         0.678327         0.100544
 O         3.453915         0.011267         1.197176
 C         2.910920         2.135860         0.050957
 H         0.372790         3.285848        -0.870704
 H         1.202271         3.812538        -2.096949
 H         0.162572         2.525665        -2.469229
 H         2.248310         1.100821        -3.226459
 H         3.806006         2.027538        -2.817990
 H         4.564879        -0.812841        -1.071747
 H         0.779664        -0.075339        -0.740254
 H         2.795783        -0.635721         1.452219
 H         2.316124         2.527717         0.860221
 H         3.843446         2.710178         0.113521
