19
Iteration:  3016charge 0 multiplicity 1
 C         0.883168         2.886899        -1.699849
 C         2.041782         1.991665        -1.273985
 C         3.014198         1.416483        -2.408697
 C         3.183580         0.167544        -1.466083
 O         3.689925        -1.022785        -1.756057
 C         1.862497         0.359285        -0.834206
 C         2.973477         0.707233         0.114716
 O         3.444109         0.075773         1.255103
 C         2.816486         2.218003         0.076361
 H         0.273857         3.108779        -0.875081
 H         1.303916         3.820349        -2.178140
 H         0.492469         2.453786        -2.616759
 H         2.360487         1.136088        -3.218040
 H         3.799651         2.247652        -2.438577
 H         4.627750        -0.975472        -1.607235
 H         0.954675        -0.259593        -0.791078
 H         3.153277        -0.870535         1.235949
 H         2.169475         2.558801         0.918841
 H         3.654404         2.895437         0.106574
