19
Iteration:  1416charge 0 multiplicity 1
 C         0.911431         2.879675        -1.867090
 C         1.966483         1.959195        -1.288834
 C         3.051748         1.434022        -2.248670
 C         3.064329         0.187003        -1.407879
 O         3.763454        -1.049547        -1.573758
 C         1.666513         0.400470        -0.753460
 C         2.962405         0.730197        -0.009385
 O         3.677521         0.071898         1.052354
 C         2.712672         2.178692         0.147715
 H         0.193260         3.001442        -1.024513
 H         1.268070         3.897277        -2.014344
 H         0.455065         2.481300        -2.790608
 H         2.639277         1.449346        -3.272626
 H         3.996808         1.971945        -2.191051
 H         4.697875        -0.889593        -1.810922
 H         0.803540        -0.119976        -0.585405
 H         3.814450        -0.834951         0.762055
 H         1.909315         2.288667         0.903956
 H         3.378485         3.092314         0.120203
