19
Iteration:   460
 C         0.872526         2.912419        -1.803632
 C         1.842742         1.959449        -1.222130
 C         3.085535         1.450877        -2.228018
 C         3.140279         0.186573        -1.463462
 O         3.840092        -1.036092        -1.754255
 C         1.780559         0.339345        -0.741118
 C         2.956551         0.742922         0.049265
 O         3.587581        -0.028101         1.045919
 C         2.711033         2.212441         0.046438
 H        -0.055174         3.045371        -1.333032
 H         1.280789         3.866968        -2.128667
 H         0.541475         2.518851        -2.739493
 H         2.714780         1.590111        -3.258916
 H         4.162443         2.092608        -2.025612
 H         4.109821        -1.355808        -0.891978
 H         0.994508        -0.101661        -0.328974
 H         3.272453         0.322834         1.862674
 H         2.009576         2.472587         0.946010
 H         3.697407         2.845328         0.188076
