19
Iteration:  2721
 C         0.887957         2.972900        -1.868681
 C         1.981259         1.904449        -1.250110
 C         3.009165         1.393209        -2.237425
 C         3.163394         0.243804        -1.356205
 O         3.765503        -0.942929        -1.741382
 C         1.719876         0.341739        -0.733065
 C         3.013932         0.697842         0.050332
 O         3.606786        -0.020627         1.075527
 C         2.794696         2.214640         0.092110
 H         0.265733         3.456950        -1.094251
 H         1.449663         3.884410        -2.330358
 H         0.338919         2.434393        -2.602888
 H         2.467923         1.125326        -3.166082
 H         3.687857         1.991486        -2.767459
 H         3.546881        -1.636177        -1.113735
 H         0.898627        -0.416968        -0.834815
 H         3.004306        -0.049755         1.851035
 H         2.007981         2.526040         0.804499
 H         3.781863         2.806374         0.159492
