19
Iteration:  1360
 C         0.743426         2.900159        -1.618041
 C         1.893155         1.909188        -1.323622
 C         3.063114         1.454311        -2.351377
 C         3.215490         0.220238        -1.426657
 O         3.836101        -1.022735        -1.612655
 C         1.816495         0.371624        -0.783054
 C         2.970948         0.761464         0.061642
 O         3.375495         0.033583         1.171236
 C         2.919947         2.193905        -0.086997
 H         0.071395         3.120145        -0.797855
 H         1.313573         3.681341        -2.098589
 H         0.109160         2.478301        -2.464775
 H         2.625995         1.167353        -3.312857
 H         3.897992         2.111138        -2.364678
 H         4.829416        -0.953379        -1.774800
 H         0.968234        -0.295979        -0.389533
 H         3.431659        -0.909800         0.844648
 H         2.351114         2.724709         0.715149
 H         3.778811         2.900414        -0.331968
