19
Iteration:  2001charge 0 multiplicity 1
 C         0.821104         2.983631        -1.624558
 C         1.990219         1.958018        -1.269537
 C         2.941534         1.428511        -2.362821
 C         3.150757         0.141158        -1.439490
 O         3.951275        -1.013251        -1.609968
 C         1.755146         0.433163        -0.933692
 C         2.996467         0.645100        -0.016269
 O         3.474477         0.005716         1.087745
 C         2.782787         2.171195         0.026194
 H         0.328537         3.242181        -0.693480
 H         1.419930         3.874169        -1.833885
 H         0.146531         2.555539        -2.396065
 H         2.529492         1.198482        -3.344793
 H         3.819242         2.002779        -2.493219
 H         4.350746        -1.509647        -0.845228
 H         1.011760        -0.176281        -0.715741
 H         2.823327         0.228165         1.763291
 H         2.125854         2.475817         0.905935
 H         3.621770         3.022012         0.057641
