19
Iteration:  2765
 C         0.906855         2.860137        -1.748281
 C         1.978664         1.941913        -1.303267
 C         3.087192         1.386741        -2.250235
 C         3.056874         0.232992        -1.304790
 O         3.758893        -0.934502        -1.685334
 C         1.746283         0.431358        -0.779913
 C         2.922067         0.721908         0.091306
 O         3.609321        -0.066760         0.944169
 C         2.761604         2.259444         0.034718
 H         0.231766         3.117016        -0.921133
 H         1.420055         3.886588        -2.028773
 H         0.449533         2.481751        -2.651260
 H         2.990523         1.017523        -3.303785
 H         4.003846         1.913239        -2.369390
 H         3.740004        -1.661944        -1.051353
 H         0.867714        -0.281147        -0.552004
 H         3.396675         0.133925         1.876800
 H         2.085250         2.397062         0.875330
 H         3.648640         2.931167        -0.280989
