19
Iteration:  3929charge 0 multiplicity 1
 C         0.844306         2.914040        -1.708162
 C         1.920891         1.965829        -1.283448
 C         3.067272         1.387110        -2.337530
 C         3.230369         0.173473        -1.352508
 O         3.880437        -0.948763        -1.609229
 C         1.730013         0.379079        -0.850251
 C         2.963169         0.707239         0.064062
 O         3.401632        -0.097284         1.085363
 C         2.793777         2.278422        -0.088258
 H         0.333954         3.114020        -0.751821
 H         1.180989         3.934997        -1.855502
 H         0.177720         2.598689        -2.539180
 H         2.665780         1.067661        -3.229092
 H         3.945840         2.001441        -2.655960
 H         3.987503        -1.390898        -0.736627
 H         0.807166        -0.164338        -0.667095
 H         4.203756         0.147705         1.567351
 H         2.277967         2.632338         0.819051
 H         3.545261         3.053636        -0.284177
