19
Iteration:  1599
 C         0.862295         2.863210        -1.852016
 C         1.917527         1.930720        -1.336064
 C         3.109411         1.505353        -2.293073
 C         3.135115         0.294352        -1.293089
 O         3.644754        -0.894823        -1.656861
 C         1.713517         0.389142        -0.799759
 C         2.943002         0.675530         0.210598
 O         3.669002        -0.157537         1.044721
 C         2.781784         2.160648         0.000176
 H        -0.055596         2.997162        -1.257821
 H         1.175092         3.900375        -2.040417
 H         0.644775         2.455843        -2.895828
 H         2.675647         1.323488        -3.236744
 H         4.006968         2.076290        -2.462201
 H         4.349464        -1.232613        -1.037297
 H         1.089046        -0.467600        -0.941892
 H         3.975973         0.413413         1.804802
 H         2.144765         2.636083         0.788082
 H         3.655233         2.829010         0.049247
