19
Iteration:  2900charge 0 multiplicity 1
 C         0.953500         2.930570        -1.815948
 C         1.961935         1.919847        -1.275042
 C         3.064912         1.479021        -2.302718
 C         3.156499         0.161040        -1.387400
 O         3.660248        -1.102963        -1.664866
 C         1.752296         0.478813        -0.773080
 C         3.053749         0.768872         0.104969
 O         3.567413        -0.036648         1.127593
 C         2.673439         2.223463         0.060748
 H         0.265623         3.228531        -0.988664
 H         1.434200         3.851520        -2.206522
 H         0.357811         2.558528        -2.722107
 H         2.407843         1.398637        -3.225401
 H         3.802591         2.232696        -2.252960
 H         4.593427        -0.995465        -1.848706
 H         0.971583        -0.212131        -0.490388
 H         3.900652        -0.858626         0.637080
 H         1.898016         2.392974         0.912034
 H         3.564983         3.019657         0.068007
