19
Iteration:  4001charge 0 multiplicity 1
 C         0.785103         2.874533        -1.868215
 C         1.907630         1.929984        -1.407628
 C         3.060583         1.470666        -2.290114
 C         3.320636         0.254595        -1.352950
 O         3.727313        -1.055368        -1.688559
 C         1.811609         0.380143        -0.701084
 C         3.027213         0.767910         0.040265
 O         3.402868        -0.104942         1.156735
 C         2.787479         2.261894         0.100962
 H         0.083228         3.247129        -1.093814
 H         1.357756         3.816290        -2.106723
 H         0.236082         2.574299        -2.752873
 H         2.537598         1.146522        -3.283529
 H         3.969226         2.104796        -2.447421
 H         4.501655        -1.247498        -1.132807
 H         0.846237        -0.139412        -0.685422
 H         4.299469         0.197363         1.242067
 H         2.166581         2.579768         0.982430
 H         3.746192         2.926595         0.149886
