19
Iteration:  3423
 C         0.944483         2.859803        -1.785736
 C         1.980873         1.886113        -1.296788
 C         3.056529         1.406316        -2.269510
 C         3.103332         0.257152        -1.320935
 O         3.845875        -0.878090        -1.696935
 C         1.772421         0.319578        -0.761625
 C         2.924737         0.760751         0.125209
 O         3.449476        -0.098150         1.095377
 C         2.741866         2.232351        -0.051090
 H         0.127799         2.959016        -1.013274
 H         1.429081         3.888263        -1.677745
 H         0.386383         2.730909        -2.759588
 H         2.877486         0.980189        -3.264122
 H         3.894724         2.181015        -2.394080
 H         3.660317        -1.626219        -1.062463
 H         0.744269        -0.040995        -0.920433
 H         4.396989         0.160525         1.109444
 H         2.137087         2.738539         0.768643
 H         3.565492         2.906492        -0.217204
