19
Iteration:   474charge 0 multiplicity 1
 C         0.874865         2.922105        -1.813623
 C         1.961685         1.936314        -1.236158
 C         3.025619         1.450607        -2.220981
 C         3.074673         0.140586        -1.420281
 O         3.880130        -1.009815        -1.721071
 C         1.712392         0.398672        -0.788608
 C         3.061116         0.722870         0.016739
 O         3.598394        -0.016091         1.019210
 C         2.668077         2.252239         0.105534
 H         0.134375         3.067174        -1.021494
 H         1.425237         3.832068        -1.966889
 H         0.505753         2.569131        -2.744043
 H         2.646938         1.209760        -3.224991
 H         3.983773         2.047775        -2.269577
 H         4.117494        -1.510413        -0.872816
 H         0.924110        -0.363954        -0.623595
 H         3.044446         0.074059         1.848944
 H         1.932387         2.403441         0.992967
 H         3.335066         3.129594         0.005903
