19
Iteration:  2708
 C         0.977721         2.872749        -1.752317
 C         1.922922         1.940795        -1.299379
 C         3.000532         1.358171        -2.312077
 C         3.208392         0.249483        -1.301578
 O         3.722705        -0.921874        -1.787573
 C         1.773898         0.459307        -0.755704
 C         2.982160         0.727001         0.118118
 O         3.574318        -0.039913         1.100811
 C         2.739180         2.192451        -0.015790
 H         0.289477         3.208675        -0.901952
 H         1.486937         3.727345        -2.289527
 H         0.246734         2.492434        -2.477920
 H         2.507599         0.918324        -3.130481
 H         3.887664         1.905262        -2.377156
 H         3.882353        -1.502948        -0.987246
 H         1.089956        -0.292567        -0.920551
 H         2.887621        -0.199755         1.763280
 H         2.270807         2.537544         0.915453
 H         3.683928         2.925832        -0.169718
