19
Iteration:  4824charge 0 multiplicity 1
 C         0.886601         2.837502        -1.780790
 C         1.900654         1.950053        -1.187205
 C         3.116421         1.475701        -2.347344
 C         3.196643         0.186690        -1.375029
 O         3.822576        -1.019562        -1.616692
 C         1.763405         0.402048        -0.863893
 C         2.991334         0.708961         0.058734
 O         3.482841         0.020250         1.120622
 C         2.707075         2.173854         0.067780
 H        -0.117181         3.009235        -1.329018
 H         1.422521         3.767372        -1.904426
 H         0.617473         2.490229        -2.773030
 H         2.568773         1.396810        -3.278094
 H         4.039126         2.039087        -2.356601
 H         4.128818        -0.947517        -2.575116
 H         0.994179        -0.411579        -0.798952
 H         3.297382         0.340549         2.057326
 H         2.059366         2.635902         0.850012
 H         3.597845         2.771999        -0.195762
