19
Iteration:  1165charge 0 multiplicity 1
 C         0.797647         2.756316        -1.671311
 C         2.035143         1.940152        -1.323761
 C         3.167376         1.365182        -2.346252
 C         3.143103         0.222390        -1.357898
 O         3.758240        -0.969228        -1.818709
 C         1.786766         0.470974        -0.809237
 C         2.935172         0.693037         0.102947
 O         3.466130         0.130387         1.291454
 C         2.781618         2.259360        -0.026440
 H         0.064005         2.722367        -0.864171
 H         0.989781         3.801227        -1.870275
 H         0.392072         2.228780        -2.577933
 H         2.581224         1.106237        -3.239683
 H         4.088543         2.002994        -2.743660
 H         4.677282        -1.056695        -1.477602
 H         1.018244        -0.292102        -0.923952
 H         3.174368        -0.784384         1.322745
 H         2.169716         2.522475         0.773041
 H         3.730361         2.620468        -0.157059
