19
Iteration:  3636
 C         0.791647         2.838542        -1.743154
 C         1.978422         1.985263        -1.347611
 C         3.040411         1.449622        -2.286917
 C         3.222887         0.200017        -1.391665
 O         3.891004        -0.998567        -1.731076
 C         1.854321         0.477747        -0.752464
 C         2.967547         0.784280         0.127944
 O         3.344806        -0.199220         1.189008
 C         2.812821         2.297794        -0.068327
 H         0.208680         3.262985        -0.908950
 H         1.277085         3.757445        -2.207346
 H         0.089237         2.346842        -2.426064
 H         2.621886         0.984123        -3.199088
 H         3.832427         2.133007        -2.654302
 H         3.522167        -1.575146        -1.067054
 H         0.908227        -0.000643        -0.554902
 H         4.274410        -0.017309         1.404910
 H         2.064829         2.763821         0.649879
 H         3.652070         3.030997        -0.200132
