19
Iteration:  4478charge 0 multiplicity 1
 C         0.917022         2.809304        -1.839549
 C         1.983240         1.916622        -1.352760
 C         3.163362         1.490214        -2.186490
 C         3.130521         0.196708        -1.379005
 O         3.882133        -0.910353        -1.555395
 C         1.706848         0.389666        -0.826303
 C         2.959783         0.727818         0.077656
 O         3.497740        -0.030549         1.119761
 C         2.609713         2.218147         0.067900
 H         0.026684         2.877434        -1.254419
 H         1.467716         3.717188        -2.091588
 H         0.470204         2.502063        -2.825805
 H         2.608241         1.301687        -3.185109
 H         3.955317         2.223650        -2.389736
 H         3.644710        -1.371760        -2.403433
 H         0.797793        -0.124120        -0.733193
 H         4.250786        -0.532609         0.665107
 H         1.873980         2.435755         0.877508
 H         3.423048         2.972746         0.206432
