19
Iteration:  4408charge 0 multiplicity 1
 C         0.852822         2.843432        -1.673998
 C         2.012796         1.919183        -1.332103
 C         3.209854         1.452083        -2.352306
 C         3.100925         0.192403        -1.400010
 O         3.981030        -0.856612        -1.576441
 C         1.803635         0.349807        -0.858175
 C         2.948501         0.733022         0.074400
 O         3.278709        -0.008749         1.155488
 C         2.716275         2.227704        -0.001514
 H         0.229820         2.823353        -0.731894
 H         1.256957         3.808139        -1.990189
 H         0.165623         2.462904        -2.438946
 H         2.918961         0.891881        -3.230234
 H         3.894833         2.198008        -2.696197
 H         3.512346        -1.624047        -1.962645
 H         0.905735        -0.259813        -0.755975
 H         4.027772        -0.645209         0.980960
 H         1.942467         2.574551         0.620436
 H         3.493714         2.940714         0.090432
