19
Iteration:  4666charge 0 multiplicity 1
 C         0.890223         2.887274        -1.803120
 C         1.910238         1.936240        -1.267445
 C         3.060767         1.507169        -2.274071
 C         3.209867         0.229881        -1.305940
 O         3.807084        -1.027411        -1.626621
 C         1.790272         0.365567        -0.894062
 C         2.907014         0.735012         0.090822
 O         3.537132        -0.012015         1.052369
 C         2.700607         2.184823         0.093907
 H        -0.080393         2.897040        -1.317748
 H         1.474990         3.866759        -1.945582
 H         0.708195         2.557916        -2.867251
 H         2.572485         1.207807        -3.285018
 H         4.024944         1.948639        -2.514182
 H         4.809120        -0.998759        -1.707971
 H         0.813934        -0.163388        -1.098375
 H         3.034069        -0.291392         1.872310
 H         2.124561         2.674166         0.870798
 H         3.620469         2.705485         0.122012
