19
Iteration:  2548
 C         0.882063         2.922959        -1.756060
 C         1.954291         1.968802        -1.316690
 C         3.055861         1.380949        -2.309776
 C         3.198545         0.217341        -1.277511
 O         3.766708        -0.931053        -1.678690
 C         1.681133         0.484702        -0.779625
 C         3.018967         0.666832         0.119166
 O         3.603550        -0.157856         0.988384
 C         2.758717         2.280984        -0.001865
 H         0.383759         3.317982        -0.909991
 H         1.379147         3.645659        -2.432514
 H         0.167099         2.440761        -2.362818
 H         2.567868         0.929470        -3.213954
 H         3.829132         2.123454        -2.386944
 H         4.030335        -1.496975        -0.894448
 H         0.775738        -0.043768        -0.608666
 H         3.093679        -0.066394         1.827934
 H         1.996867         2.430682         0.782158
 H         3.505060         2.996054        -0.277047
