19
Iteration:  3747
 C         0.902150         2.969538        -1.764985
 C         1.969179         1.994454        -1.326924
 C         2.926443         1.332441        -2.379511
 C         3.074329         0.213424        -1.455682
 O         3.957118        -0.952142        -1.586011
 C         1.766569         0.367406        -0.850658
 C         3.000604         0.732184         0.061499
 O         3.416813        -0.086668         1.128994
 C         2.771177         2.162621         0.120670
 H         0.068988         3.157950        -1.108997
 H         1.396556         4.007511        -1.771184
 H         0.447628         2.745008        -2.759180
 H         2.334448         1.216800        -3.322755
 H         3.888762         1.793873        -2.551044
 H         4.323615        -1.179651        -0.656653
 H         0.816696        -0.190651        -0.567454
 H         4.390609         0.164240         1.252131
 H         2.071119         2.690596         0.723878
 H         3.589801         2.869394        -0.162259
