19
Iteration:  1774
 C         0.864093         2.838136        -1.738366
 C         1.974395         1.973761        -1.322799
 C         3.126648         1.496680        -2.295073
 C         3.149349         0.208847        -1.466853
 O         3.672046        -1.088288        -1.605714
 C         1.706953         0.487797        -0.938601
 C         2.995651         0.691019         0.049476
 O         3.647634         0.038823         1.037023
 C         2.762592         2.151371         0.201057
 H        -0.099257         2.602886        -1.197309
 H         1.115369         3.899259        -1.930024
 H         0.502435         2.349048        -2.719252
 H         2.805971         1.516671        -3.348557
 H         4.117055         2.157399        -2.319733
 H         4.284194        -1.220287        -0.894433
 H         0.715795        -0.036228        -0.902504
 H         3.182639         0.254287         1.844026
 H         1.878172         2.218684         0.907974
 H         3.670428         2.802309         0.402826
