19
Iteration:  1266
 C         0.905889         2.838354        -1.894105
 C         1.969199         1.920622        -1.278132
 C         3.092100         1.479087        -2.297767
 C         3.006810         0.204924        -1.375477
 O         3.766446        -1.036710        -1.553212
 C         1.708203         0.426203        -0.788161
 C         2.996617         0.768129         0.052096
 O         3.656366         0.043139         1.065901
 C         2.685264         2.175807         0.121351
 H         0.119035         2.921417        -1.096578
 H         1.333725         3.836948        -2.051013
 H         0.387770         2.570475        -2.786503
 H         2.551924         1.293435        -3.257192
 H         4.132654         1.984994        -2.266003
 H         4.614421        -0.751742        -1.878654
 H         0.941729        -0.245354        -0.473203
 H         3.661807        -0.854143         0.727651
 H         1.926734         2.356705         0.896024
 H         3.435050         2.954983         0.129420
