19
Iteration:   715
 C         0.850378         2.784094        -1.665377
 C         1.991403         1.893900        -1.341260
 C         3.106575         1.284469        -2.317641
 C         3.133677         0.222824        -1.314433
 O         3.876835        -0.857880        -1.747298
 C         1.726802         0.542260        -0.821129
 C         3.007601         0.752195         0.084726
 O         3.496028        -0.070117         1.095839
 C         2.762549         2.263764        -0.002100
 H         0.230572         2.878591        -0.759528
 H         1.120415         3.794593        -2.035656
 H         0.126375         2.477298        -2.437890
 H         2.860527         0.830540        -3.255034
 H         3.964320         1.960326        -2.556829
 H         3.878729        -1.467142        -0.920289
 H         0.841625         0.005379        -0.676579
 H         2.746669        -0.337959         1.615516
 H         1.996268         2.725145         0.661828
 H         3.571411         2.989669        -0.074804
