19
Iteration:   410
 C         0.808893         2.798693        -1.695670
 C         2.015764         2.015815        -1.337147
 C         3.113176         1.456583        -2.395101
 C         3.227343         0.277994        -1.384631
 O         3.730912        -1.038693        -1.638577
 C         1.826052         0.469708        -0.855255
 C         2.900346         0.699412         0.103859
 O         3.558450        -0.039976         1.079656
 C         2.750164         2.196269         0.105726
 H         0.090032         2.866547        -0.815124
 H         1.056305         3.830210        -2.039079
 H         0.183168         2.434998        -2.550070
 H         2.560338         1.025455        -3.236234
 H         3.898647         2.063871        -2.692502
 H         4.741134        -1.006156        -1.517332
 H         0.888698        -0.154825        -0.727453
 H         2.884312        -0.267502         1.778152
 H         2.034579         2.576201         0.820514
 H         3.577364         2.842054         0.036239
