19
Iteration:  3214charge 0 multiplicity 1
 C         0.816652         2.899665        -1.827587
 C         2.008834         1.991509        -1.271555
 C         3.178624         1.420113        -2.283062
 C         3.136502         0.290065        -1.344435
 O         3.741455        -1.008668        -1.707205
 C         1.742950         0.426747        -0.807295
 C         2.890570         0.706470         0.134783
 O         3.623025        -0.081818         1.061877
 C         2.738887         2.230466         0.025419
 H         0.161222         2.953191        -0.974451
 H         1.051647         3.972515        -2.153243
 H         0.127407         2.320015        -2.506940
 H         2.734986         1.224688        -3.210505
 H         4.154395         1.860565        -2.536649
 H         4.411674        -1.260723        -1.071348
 H         0.935562        -0.231147        -0.725278
 H         2.950476        -0.461217         1.642892
 H         2.011580         2.592313         0.876469
 H         3.717070         2.825756         0.080971
