19
Iteration:  3119
 C         0.859202         2.938647        -1.704310
 C         1.912802         1.874476        -1.298635
 C         3.081545         1.417844        -2.349326
 C         3.104091         0.202762        -1.433506
 O         3.880225        -0.921341        -1.578132
 C         1.718606         0.339852        -0.828755
 C         2.914190         0.753552         0.095934
 O         3.477177        -0.139776         0.994179
 C         2.871905         2.289824         0.014181
 H         0.087585         3.072913        -0.905486
 H         1.341604         3.885558        -1.817878
 H         0.333196         2.600322        -2.607249
 H         2.835282         1.473567        -3.423120
 H         4.068881         1.896323        -2.411026
 H         4.050982        -1.376909        -0.699795
 H         0.813439        -0.144889        -0.637953
 H         3.387813         0.091956         1.915129
 H         2.316710         2.686508         0.800000
 H         3.736764         2.908910        -0.207683
