19
Iteration:  1299charge 0 multiplicity 1
 C         0.815387         2.831178        -1.812512
 C         1.923135         1.894800        -1.304899
 C         3.010820         1.500079        -2.261076
 C         3.227658         0.271199        -1.364945
 O         3.640583        -1.070380        -1.681781
 C         1.878630         0.362566        -0.861967
 C         3.051552         0.766942         0.157050
 O         3.511288         0.045116         1.223978
 C         2.780320         2.236948         0.013295
 H        -0.038386         3.023498        -1.105281
 H         1.216927         3.856510        -1.938386
 H         0.419096         2.561285        -2.767252
 H         2.563200         1.151315        -3.255011
 H         3.866495         2.225394        -2.654128
 H         4.627430        -1.172920        -1.636376
 H         1.318495        -0.482689        -1.032485
 H         3.781912        -0.826030         0.885771
 H         2.222044         2.653893         0.844833
 H         3.574481         2.977748        -0.165693
