19
Iteration:  3844charge 0 multiplicity 1
 C         0.895515         2.781985        -1.817777
 C         1.982336         1.975102        -1.259142
 C         3.105667         1.459360        -2.240244
 C         3.148473         0.253950        -1.430842
 O         3.742032        -0.999460        -1.767343
 C         1.809246         0.387562        -0.789772
 C         2.929487         0.740645         0.145339
 O         3.457227        -0.016541         1.135094
 C         2.734718         2.260062         0.033535
 H         0.099423         3.010021        -1.177116
 H         1.388372         3.680303        -2.151196
 H         0.451276         2.300095        -2.667192
 H         2.734281         1.319666        -3.265083
 H         4.041524         2.043223        -2.166535
 H         3.866478        -1.545923        -0.951717
 H         0.996360        -0.347448        -0.585783
 H         4.443949        -0.065352         1.303885
 H         2.057185         2.767582         0.753067
 H         3.698479         2.718945        -0.054713
