19
Iteration:  3348charge 0 multiplicity 1
 C         0.805980         2.854731        -1.760949
 C         1.990112         1.904115        -1.395494
 C         3.107535         1.462973        -2.249434
 C         3.238529         0.265096        -1.331499
 O         3.792433        -0.959365        -1.738698
 C         1.803510         0.437130        -0.731856
 C         2.986251         0.746835         0.072623
 O         3.396145        -0.168807         1.125866
 C         2.753037         2.257168         0.003563
 H         0.197432         3.206917        -0.880053
 H         1.129967         3.783629        -2.227135
 H         0.238779         2.427674        -2.597298
 H         2.807141         1.159901        -3.214920
 H         3.923668         2.176793        -2.318538
 H         3.715390        -1.489654        -0.953937
 H         0.913729        -0.227263        -0.652434
 H         4.230879         0.227938         1.409053
 H         2.080789         2.799850         0.685341
 H         3.761613         2.769100        -0.113830
