19
Iteration:  4948charge 0 multiplicity 1
 C         0.956807         2.853991        -1.763432
 C         1.985461         1.964570        -1.278535
 C         2.986515         1.354931        -2.331229
 C         3.174426         0.265957        -1.341855
 O         3.976620        -0.888066        -1.534831
 C         1.602496         0.414686        -0.765361
 C         2.778113         0.682783         0.041664
 O         3.607095        -0.126028         0.920151
 C         2.714362         2.200766         0.043841
 H         0.237632         3.264448        -1.055157
 H         1.523830         3.699810        -2.145344
 H         0.409456         2.599712        -2.716493
 H         2.347421         1.293285        -3.179889
 H         3.870517         1.914045        -2.718513
 H         4.537002        -1.137814        -0.754304
 H         0.605144        -0.159535        -0.759634
 H         3.421302         0.129472         1.881022
 H         2.004918         2.694354         0.699296
 H         3.570465         2.994681        -0.063242
