19
Iteration:  1742charge 0 multiplicity 1
 C         0.874813         2.863289        -1.747116
 C         1.900989         1.878285        -1.325840
 C         3.112418         1.444282        -2.264273
 C         3.266907         0.286449        -1.311975
 O         3.630628        -0.979589        -1.674934
 C         1.794319         0.390707        -0.878769
 C         2.947236         0.751549         0.135321
 O         3.617981        -0.117133         1.029280
 C         2.710741         2.268492         0.047541
 H         0.009197         3.221526        -1.116752
 H         1.154203         3.891766        -2.074816
 H         0.440511         2.438896        -2.725366
 H         2.792611         1.107532        -3.279022
 H         4.057808         2.075083        -2.386566
 H         4.544359        -1.169295        -1.302769
 H         0.998291        -0.367863        -0.817636
 H         3.321127        -0.099425         1.993258
 H         2.033647         2.774360         0.867311
 H         3.618602         2.999237        -0.071595
