19
Iteration:  3340charge 0 multiplicity 1
 C         0.816994         2.902926        -1.769781
 C         1.925177         1.924416        -1.316754
 C         3.094361         1.449247        -2.267646
 C         3.205782         0.224232        -1.384125
 O         3.853797        -0.979070        -1.735634
 C         1.765864         0.481052        -0.786871
 C         2.968196         0.776237         0.134795
 O         3.396726        -0.168660         1.157624
 C         2.790762         2.212183        -0.048331
 H         0.111724         3.120410        -0.857004
 H         1.279795         3.769600        -2.193186
 H         0.186762         2.340199        -2.492403
 H         2.780069         1.290703        -3.375244
 H         3.934300         2.153611        -2.194947
 H         3.881651        -1.474849        -0.925109
 H         1.112391        -0.290967        -0.633105
 H         4.262819         0.154266         1.416556
 H         2.063123         2.739551         0.583500
 H         3.807409         2.839384        -0.201375
