19
Iteration:  4614charge 0 multiplicity 1
 C         0.851729         2.948973        -1.829471
 C         1.885039         2.017184        -1.200497
 C         3.106365         1.491605        -2.269671
 C         3.189278         0.169676        -1.367837
 O         3.919044        -1.012271        -1.567170
 C         1.737349         0.350635        -0.893116
 C         2.926024         0.702534        -0.012410
 O         3.529828        -0.018165         1.016178
 C         2.739596         2.190768         0.034927
 H         0.200657         3.107103        -0.980033
 H         1.464787         3.792072        -2.140724
 H         0.163704         2.539964        -2.514736
 H         2.594919         1.247823        -3.186541
 H         3.966401         2.142200        -2.288579
 H         4.088504        -1.363686        -0.698841
 H         0.936907        -0.331445        -0.648240
 H         2.885292        -0.534758         1.546966
 H         1.930908         2.415263         0.832879
 H         3.609510         2.944270        -0.039359
