19
Iteration:  4117
 C         0.851823         2.791930        -1.788043
 C         2.008621         2.003571        -1.319855
 C         3.071127         1.417625        -2.334238
 C         3.165643         0.224733        -1.362633
 O         3.929777        -0.919372        -1.611497
 C         1.752801         0.445339        -0.880454
 C         2.953313         0.729542         0.090791
 O         3.427267         0.026592         1.172749
 C         2.767516         2.180117         0.057203
 H         0.261900         3.109686        -0.889001
 H         1.245295         3.793268        -2.112144
 H         0.205547         2.283840        -2.566528
 H         2.509574         1.256614        -3.231253
 H         4.072078         1.885339        -2.358576
 H         3.350479        -1.608280        -1.930445
 H         0.896797        -0.247989        -0.889429
 H         3.268738        -0.900725         1.033036
 H         2.183105         2.471870         0.938217
 H         3.691475         2.665721         0.097148
