19
Iteration:  2583
 C         0.951749         2.891311        -1.813002
 C         1.996098         1.992691        -1.191979
 C         3.014277         1.459214        -2.333067
 C         3.031032         0.184411        -1.433013
 O         3.802462        -0.967402        -1.709345
 C         1.680800         0.323130        -0.721224
 C         2.951619         0.686892         0.054925
 O         3.646980         0.010615         1.052546
 C         2.759283         2.168037         0.074027
 H         0.253642         3.499337        -1.237996
 H         1.518208         3.749181        -2.196803
 H         0.417190         2.393865        -2.678496
 H         2.764021         1.421118        -3.377272
 H         4.000417         1.860329        -2.363196
 H         3.693649        -1.681611        -1.022461
 H         0.731379        -0.140806        -0.636515
 H         3.212676         0.047263         1.950055
 H         2.349402         2.558032         0.988457
 H         3.493978         3.057393         0.054318
