19
Iteration:   891charge 0 multiplicity 1
 C         0.866862         2.833964        -1.766105
 C         1.949286         1.918266        -1.252791
 C         3.013679         1.345125        -2.343340
 C         3.137671         0.137400        -1.391554
 O         3.942088        -0.857757        -1.743380
 C         1.698469         0.455523        -0.810162
 C         2.954159         0.731665         0.126187
 O         3.487902        -0.049313         1.156491
 C         2.828401         2.243215        -0.004270
 H         0.177601         3.127529        -0.950551
 H         1.428872         3.739389        -2.019168
 H         0.382132         2.381632        -2.683197
 H         2.581506         1.207434        -3.291887
 H         3.864481         2.010025        -2.352857
 H         3.796629        -1.570391        -1.120831
 H         0.756398        -0.226605        -0.757423
 H         3.138340         0.204533         2.023919
 H         2.224827         2.707522         0.768267
 H         3.633868         2.876805        -0.308070
