19
Iteration:   953charge 0 multiplicity 1
 C         0.881090         2.823204        -1.741330
 C         2.062863         1.927275        -1.412476
 C         3.081166         1.387999        -2.299137
 C         3.162533         0.281048        -1.305632
 O         3.741960        -1.004464        -1.553381
 C         1.721636         0.449424        -0.854572
 C         2.868902         0.726887         0.146943
 O         3.672788        -0.039265         0.994688
 C         2.652542         2.264322         0.035827
 H         0.111938         3.015980        -0.979785
 H         1.118022         3.908673        -2.018791
 H         0.327970         2.476768        -2.588888
 H         2.683755         1.208594        -3.350602
 H         3.930063         2.188745        -2.301477
 H         4.668874        -1.108266        -1.556092
 H         0.960777        -0.224426        -0.814727
 H         3.249044        -0.702045         1.548203
 H         1.826930         2.557072         0.721463
 H         3.561264         2.982366         0.062416
