19
Iteration:  2273charge 0 multiplicity 1
 C         0.891642         2.877809        -1.765785
 C         1.966239         1.915228        -1.274820
 C         3.084250         1.459232        -2.311832
 C         3.151262         0.278221        -1.384825
 O         3.656289        -0.990290        -1.629008
 C         1.768016         0.408963        -0.861733
 C         2.931214         0.711005         0.129479
 O         3.653465        -0.093134         1.071541
 C         2.719737         2.211583         0.058059
 H         0.152793         2.870341        -0.972684
 H         1.327234         3.910291        -1.899923
 H         0.714023         2.700776        -2.758591
 H         2.690736         1.201064        -3.348296
 H         3.892042         2.188330        -2.558004
 H         4.612562        -1.190397        -1.389981
 H         1.013920        -0.389155        -1.175917
 H         3.158083         0.124345         1.926029
 H         2.013172         2.645291         0.747337
 H         3.558011         2.850243        -0.093170
