19
Iteration:  3984
 C         0.893357         2.802905        -1.787043
 C         1.978080         1.950004        -1.246504
 C         3.037295         1.461371        -2.307759
 C         3.184092         0.232940        -1.388647
 O         3.745773        -0.992228        -1.710059
 C         1.822819         0.479276        -0.840055
 C         2.981083         0.727442         0.156445
 O         3.398938        -0.093275         1.145080
 C         2.811327         2.257232        -0.008195
 H         0.062150         2.947372        -1.066038
 H         1.247804         3.689071        -2.302014
 H         0.376829         2.129896        -2.522902
 H         2.585228         1.121975        -3.183806
 H         3.837730         2.163786        -2.588956
 H         4.314732        -1.266310        -0.984617
 H         1.144530        -0.332596        -0.811720
 H         4.055335         0.332357         1.689840
 H         2.153655         2.701843         0.728940
 H         3.642463         2.871305        -0.239937
