19
Iteration:  1176
 C         0.821502         2.770260        -1.663656
 C         2.010598         1.943276        -1.331772
 C         3.067160         1.330318        -2.370733
 C         3.288625         0.238832        -1.361783
 O         3.778472        -1.010341        -1.792185
 C         1.776149         0.438130        -0.831256
 C         2.953086         0.789304         0.125818
 O         3.400622         0.126977         1.232242
 C         2.843064         2.198428         0.022175
 H         0.187813         2.699745        -0.771119
 H         0.973832         3.794254        -1.948766
 H         0.131923         2.370742        -2.470383
 H         2.567089         0.899986        -3.265566
 H         4.075119         1.960392        -2.560626
 H         4.709416        -0.869715        -1.703750
 H         0.767727        -0.081198        -0.828147
 H         3.134290        -0.786998         1.196097
 H         2.167704         2.617237         0.709532
 H         3.538572         2.960066         0.155838
