19
Iteration:  4544charge 0 multiplicity 1
 C         0.826489         2.811001        -1.738751
 C         1.976358         1.896396        -1.266852
 C         3.107957         1.524589        -2.327028
 C         3.222972         0.228413        -1.386050
 O         3.927243        -0.977154        -1.688719
 C         1.811052         0.369853        -0.820374
 C         2.983696         0.786492         0.023609
 O         3.231337        -0.060682         1.133130
 C         2.778366         2.241460         0.052555
 H        -0.033472         2.970843        -1.130175
 H         1.386729         3.720923        -1.987951
 H         0.354455         2.501950        -2.715928
 H         2.494741         1.300996        -3.206787
 H         4.011368         2.011260        -2.494573
 H         4.125030        -1.332358        -0.829409
 H         0.937971        -0.223836        -0.682010
 H         4.175492        -0.085115         1.292599
 H         2.157367         2.453473         0.911486
 H         3.604479         2.915049        -0.097356
