19
Iteration:   719
 C         0.824216         2.818629        -1.706639
 C         2.015320         1.921290        -1.391409
 C         3.091786         1.295508        -2.293822
 C         3.154881         0.243193        -1.320667
 O         3.879946        -0.882299        -1.763267
 C         1.743393         0.520156        -0.773946
 C         2.970931         0.760346         0.111636
 O         3.510814        -0.078743         1.109249
 C         2.751878         2.252381        -0.010281
 H         0.293673         2.885118        -0.770192
 H         1.223866         3.783309        -1.888759
 H         0.200139         2.280213        -2.462546
 H         2.724369         0.914568        -3.301616
 H         3.811231         2.066687        -2.531134
 H         3.830755        -1.420180        -0.986914
 H         0.854008        -0.101598        -0.666551
 H         2.744236        -0.324052         1.694079
 H         1.955034         2.646118         0.701375
 H         3.732229         2.840548        -0.092094
