19
Iteration:  2421charge 0 multiplicity 1
 C         0.908481         2.937288        -1.827243
 C         1.956640         1.948487        -1.338350
 C         3.063640         1.460128        -2.310026
 C         3.133793         0.215767        -1.393878
 O         3.716414        -0.974732        -1.666866
 C         1.746066         0.414156        -0.761053
 C         2.901760         0.627307         0.128705
 O         3.635309        -0.047872         1.086204
 C         2.758472         2.194169         0.053298
 H         0.165406         3.280001        -1.084968
 H         1.403703         3.800809        -2.164823
 H         0.349590         2.368101        -2.626737
 H         2.485951         1.242303        -3.192478
 H         3.814601         2.332111        -2.514237
 H         4.612461        -1.031884        -1.315943
 H         0.944070        -0.301856        -0.637161
 H         3.330907        -0.551039         1.857534
 H         2.299973         2.769091         0.841170
 H         3.578165         2.809498         0.124604
