19
Iteration:  2826charge 0 multiplicity 1
 C         0.838406         2.852892        -1.641445
 C         2.004912         1.969617        -1.295000
 C         3.032003         1.430437        -2.387980
 C         3.200134         0.169401        -1.451994
 O         3.724014        -1.041627        -1.635294
 C         1.862184         0.402519        -0.741735
 C         3.022506         0.773824         0.018150
 O         3.362179         0.008600         1.079137
 C         2.890415         2.295738         0.023760
 H         0.179734         2.907408        -0.741481
 H         1.289165         3.786744        -1.734490
 H         0.176936         2.715125        -2.498308
 H         2.536404         0.873080        -3.122764
 H         4.038670         1.924313        -2.560628
 H         4.716622        -1.042655        -1.524217
 H         1.015722        -0.260781        -0.682050
 H         2.809530        -0.755311         1.232400
 H         2.312248         2.526826         0.969652
 H         3.576180         3.050474        -0.110097
