19
Iteration:  1265
 C         0.905632         2.840097        -1.891229
 C         1.971508         1.925565        -1.279006
 C         3.091345         1.468764        -2.299838
 C         2.997219         0.199656        -1.374001
 O         3.767785        -1.032109        -1.552365
 C         1.714244         0.424836        -0.794205
 C         2.995581         0.764315         0.057761
 O         3.659098         0.042689         1.065203
 C         2.684394         2.185178         0.122986
 H         0.125793         2.920628        -1.081928
 H         1.344328         3.828316        -2.043783
 H         0.382547         2.544538        -2.804477
 H         2.558006         1.308418        -3.248688
 H         4.143600         1.976224        -2.268926
 H         4.607012        -0.702549        -1.874745
 H         0.892255        -0.261886        -0.487903
 H         3.662553        -0.840889         0.705292
 H         1.896413         2.334813         0.875684
 H         3.477262         2.950413         0.139314
