19
Iteration:  1017charge 0 multiplicity 1
 C         0.817980         2.803442        -1.719434
 C         1.967044         1.909261        -1.306590
 C         3.075226         1.297764        -2.315731
 C         3.287499         0.211490        -1.348699
 O         3.779256        -0.928049        -1.825825
 C         1.823517         0.436007        -0.801150
 C         2.958266         0.772895         0.080120
 O         3.470827         0.006201         1.207712
 C         2.781811         2.341932         0.049938
 H        -0.009212         2.793934        -0.991805
 H         1.149490         3.828254        -2.077286
 H         0.398680         2.306701        -2.570510
 H         2.608871         1.159517        -3.349358
 H         3.968996         1.851983        -2.751911
 H         4.066979        -1.504118        -1.108546
 H         1.071153        -0.279998        -0.704906
 H         2.705428        -0.387757         1.626728
 H         2.163840         2.665907         0.893891
 H         3.584426         2.975442        -0.121621
