19
Iteration:  4091
 C         0.877795         2.812649        -1.731576
 C         1.959704         1.915069        -1.339574
 C         3.031455         1.492250        -2.348838
 C         3.197681         0.228647        -1.375517
 O         3.877915        -1.004783        -1.520844
 C         1.788226         0.452494        -0.813788
 C         3.030796         0.775574         0.052174
 O         3.412751        -0.038984         1.137622
 C         2.724034         2.236220         0.007628
 H         0.073286         3.104742        -1.006500
 H         1.366957         3.749538        -2.042779
 H         0.448300         2.354456        -2.658726
 H         2.566669         1.278653        -3.365386
 H         4.002927         2.050308        -2.362425
 H         4.080509        -1.226580        -2.417710
 H         0.882975        -0.153687        -0.601117
 H         3.071781        -0.910612         0.974789
 H         2.143368         2.495464         0.873020
 H         3.638994         2.933270        -0.037371
