19
Iteration:  1948
 C         0.787562         2.850621        -1.852228
 C         1.948720         1.972487        -1.284378
 C         3.123326         1.470215        -2.166663
 C         3.113405         0.194047        -1.387068
 O         3.735510        -1.011780        -1.711404
 C         1.766154         0.435931        -0.701850
 C         2.986327         0.758056         0.087730
 O         3.608430        -0.123670         0.966364
 C         2.734133         2.289818         0.036609
 H        -0.153171         2.715645        -1.273576
 H         1.227545         3.881055        -1.822566
 H         0.824596         2.521503        -2.975659
 H         2.940477         1.159664        -3.199489
 H         4.081354         2.119896        -2.087617
 H         4.511533        -1.303710        -1.148642
 H         0.922034        -0.034610        -0.466864
 H         3.029124        -0.292513         1.715927
 H         2.288367         2.604184         0.972534
 H         3.546436         3.065390         0.028930
