19
Iteration:   998charge 0 multiplicity 1
 C         0.848831         2.731279        -1.838871
 C         1.953704         1.929029        -1.260149
 C         3.032877         1.557142        -2.261929
 C         3.127142         0.267126        -1.432587
 O         3.767307        -1.067995        -1.751732
 C         1.860866         0.459441        -0.736383
 C         3.046538         0.743305         0.084965
 O         3.479642         0.022489         1.214217
 C         2.819195         2.225142        -0.027306
 H         0.000069         2.713309        -1.106022
 H         1.035353         3.835567        -1.922328
 H         0.358711         2.406025        -2.760271
 H         2.783678         1.178397        -3.301391
 H         3.896646         2.312362        -2.547732
 H         4.360602        -1.339798        -1.079400
 H         0.901475        -0.160885        -0.582134
 H         2.842569        -0.613000         1.499685
 H         2.028301         2.508039         0.689786
 H         3.815431         2.868396        -0.005549
