19
Iteration:  1192charge 0 multiplicity 1
 C         0.822825         2.807822        -1.640031
 C         1.979297         1.905577        -1.333498
 C         3.023350         1.409936        -2.379622
 C         3.228067         0.200740        -1.406562
 O         3.842398        -1.043534        -1.649806
 C         1.888137         0.451985        -0.820175
 C         3.032305         0.744331         0.005093
 O         3.331064         0.057122         1.223921
 C         2.769435         2.316609         0.012869
 H         0.206150         3.065015        -0.747995
 H         1.231947         3.789660        -2.030467
 H         0.195625         2.417658        -2.418472
 H         2.398478         1.008532        -3.257508
 H         3.711295         2.124225        -2.669425
 H         4.725100        -0.985801        -2.060769
 H         1.069380        -0.180127        -0.519148
 H         3.232795        -0.881037         1.084500
 H         1.992788         2.479902         0.843374
 H         3.779140         2.831559        -0.042928
