19
Iteration:  1559charge 0 multiplicity 1
 C         0.892157         2.854581        -1.755493
 C         2.026952         1.943138        -1.221538
 C         3.030677         1.404286        -2.265581
 C         3.107260         0.189492        -1.424750
 O         3.855927        -1.008753        -1.710891
 C         1.750839         0.430354        -0.807126
 C         3.023067         0.756914        -0.027666
 O         3.424899         0.022468         1.043374
 C         2.712766         2.218199         0.156422
 H         0.194428         3.197436        -0.943822
 H         1.418906         3.786935        -2.033557
 H         0.448074         2.389116        -2.606716
 H         2.497959         1.017253        -3.266113
 H         4.001423         1.902060        -2.644998
 H         4.054996        -1.443859        -0.891700
 H         0.849048        -0.131568        -0.358187
 H         4.382867         0.075261         1.171587
 H         1.878475         2.341906         0.856034
 H         3.491915         3.010104         0.157955
