19
Iteration:  3948charge 0 multiplicity 1
 C         0.796688         2.888962        -1.664626
 C         1.975099         1.912277        -1.419016
 C         3.085190         1.372192        -2.289840
 C         3.082419         0.154124        -1.399133
 O         3.953103        -1.004162        -1.684311
 C         1.757230         0.558560        -0.796988
 C         2.900802         0.746630         0.047332
 O         3.404942        -0.058968         1.105171
 C         2.861229         2.209682         0.056271
 H         0.074783         3.089752        -0.798135
 H         0.943789         3.879901        -2.202455
 H         0.331163         2.274332        -2.489532
 H         2.751109         1.218161        -3.328202
 H         3.981044         1.997649        -2.413190
 H         4.073872        -1.516577        -0.881996
 H         0.915227        -0.140548        -0.654206
 H         3.934657         0.535516         1.599379
 H         2.217910         2.734756         0.695737
 H         3.782398         2.749765        -0.056633
