19
Iteration:   343charge 0 multiplicity 1
 C         0.911050         2.846279        -1.747886
 C         2.015638         1.992484        -1.290375
 C         2.967874         1.344376        -2.388328
 C         3.131445         0.232616        -1.385999
 O         3.900194        -0.880207        -1.753996
 C         1.735522         0.475877        -0.813698
 C         2.873526         0.712222         0.121971
 O         3.563344        -0.031512         1.136358
 C         2.780104         2.204538         0.095434
 H         0.136825         2.850203        -0.915537
 H         1.140891         3.902566        -2.057080
 H         0.411934         2.347131        -2.594112
 H         2.306663         0.854229        -3.137951
 H         3.791761         1.819657        -2.853343
 H         4.149878        -1.283812        -0.940784
 H         0.922790        -0.070918        -0.914236
 H         3.064795        -0.646193         1.706894
 H         2.196955         2.492438         0.946196
 H         3.727253         2.559556         0.161181
