19
Iteration:  3316charge 0 multiplicity 1
 C         0.897280         2.909439        -1.718562
 C         2.024614         1.920559        -1.288462
 C         3.005406         1.394822        -2.282124
 C         3.142853         0.165551        -1.461836
 O         3.932633        -0.902352        -1.687955
 C         1.703103         0.372570        -0.797475
 C         2.976193         0.710519        -0.036807
 O         3.327706        -0.016244         1.158772
 C         2.799155         2.190181         0.072028
 H         0.117639         3.183688        -0.889928
 H         1.465122         3.758109        -2.056818
 H         0.297480         2.444716        -2.541240
 H         2.437150         1.175496        -3.185185
 H         3.884193         1.997276        -2.530611
 H         4.238592        -1.136598        -0.754413
 H         0.668854        -0.104958        -0.695214
 H         4.317086         0.018782         1.115142
 H         2.186137         2.633390         0.876884
 H         3.872827         2.688986        -0.097961
