19
Iteration:   992charge 0 multiplicity 1
 C         0.840587         2.770457        -1.825131
 C         1.931680         1.928762        -1.277016
 C         3.035040         1.567991        -2.252388
 C         3.162168         0.204927        -1.463661
 O         3.727836        -1.041434        -1.696041
 C         1.807407         0.469316        -0.769015
 C         3.037062         0.695982         0.017548
 O         3.517778         0.018939         1.233951
 C         2.857216         2.237397        -0.017404
 H        -0.021103         2.553075        -1.189360
 H         1.055502         3.799595        -2.035345
 H         0.569343         2.217828        -2.785799
 H         2.763376         1.462172        -3.307306
 H         3.834442         2.231075        -2.345892
 H         4.501462        -1.060682        -1.017409
 H         0.968854        -0.193101        -0.527172
 H         2.837897        -0.648411         1.474374
 H         2.134536         2.441790         0.791811
 H         3.614088         2.988220        -0.002477
