19
Iteration:  4576
 C         0.822836         2.780958        -1.720816
 C         2.040854         1.946096        -1.365931
 C         3.148405         1.463225        -2.370774
 C         3.159024         0.290973        -1.324280
 O         3.921836        -0.863050        -1.669044
 C         1.668755         0.477324        -0.831109
 C         2.937928         0.687041         0.121216
 O         3.358192        -0.246548         1.170987
 C         2.800267         2.252035        -0.068282
 H         0.106673         3.075628        -0.881012
 H         1.124368         3.776708        -2.151911
 H         0.189501         2.391018        -2.589135
 H         2.628433         1.135071        -3.287990
 H         4.104273         1.823722        -2.795940
 H         4.541430        -1.094169        -0.910701
 H         0.686307         0.018358        -0.767702
 H         3.668580         0.322549         1.961013
 H         2.161898         2.535119         0.709918
 H         3.609962         2.918258         0.016993
