19
Iteration:   554charge 0 multiplicity 1
 C         0.783014         2.828969        -1.672137
 C         2.006411         1.935631        -1.323398
 C         3.072039         1.372860        -2.344475
 C         3.123267         0.237079        -1.469542
 O         3.941303        -0.963758        -1.665283
 C         1.765583         0.473020        -0.774243
 C         3.016039         0.784690         0.042102
 O         3.429391        -0.099474         1.038654
 C         2.799896         2.276573         0.027273
 H         0.204053         2.863010        -0.710152
 H         1.056771         3.824934        -2.058375
 H         0.103475         2.331158        -2.435750
 H         2.604245         1.197064        -3.336841
 H         4.032234         1.814137        -2.369144
 H         4.115626        -1.354851        -0.738474
 H         0.789539        -0.127622        -0.269990
 H         2.811596         0.031080         1.796702
 H         2.127416         2.550640         0.854943
 H         3.678158         2.903608         0.068641
