19
Iteration:   229
 C         0.825435         2.874504        -1.772525
 C         1.849279         1.916207        -1.339376
 C         3.046522         1.486259        -2.256017
 C         3.185344         0.213245        -1.367739
 O         3.830367        -1.007388        -1.714195
 C         1.762586         0.448742        -0.725406
 C         3.076196         0.705208         0.080643
 O         3.547203        -0.105971         1.139289
 C         2.760800         2.320744        -0.087359
 H         0.190742         2.953359        -0.895425
 H         1.364875         3.836902        -1.845184
 H         0.245000         2.703629        -2.696509
 H         2.683760         1.323771        -3.250841
 H         3.940433         2.102133        -2.214684
 H         4.298073        -1.363214        -0.908249
 H         0.858109        -0.310530        -0.575767
 H         2.785164        -0.662571         1.280839
 H         2.150184         2.598334         0.832904
 H         3.613592         2.978668        -0.302343
