19
Iteration:  2917
 C         0.873296         2.958603        -1.805332
 C         1.956590         1.988433        -1.352393
 C         3.087913         1.379617        -2.335716
 C         3.125249         0.308468        -1.365255
 O         3.630346        -0.995907        -1.574398
 C         1.816156         0.396941        -0.730064
 C         3.001990         0.703421         0.094935
 O         3.606586        -0.120685         1.090882
 C         2.708084         2.262197         0.069648
 H         0.134961         3.169369        -1.065332
 H         1.501186         3.855174        -2.096840
 H         0.337097         2.579952        -2.645932
 H         2.796757         0.818059        -3.226139
 H         4.178206         1.843236        -2.376717
 H         4.434583        -0.839863        -2.076711
 H         0.938994        -0.190845        -0.753874
 H         3.924105        -0.979549         0.665487
 H         1.978041         2.517997         0.794170
 H         3.386327         3.047777         0.236402
