19
Iteration:  4241
 C         0.862991         2.845255        -1.700702
 C         1.997577         1.953148        -1.389779
 C         3.056311         1.446563        -2.312335
 C         3.172287         0.192497        -1.376385
 O         3.952432        -0.947460        -1.565534
 C         1.732497         0.389050        -0.836064
 C         2.982237         0.706490         0.020910
 O         3.298068         0.000651         1.226804
 C         2.828220         2.219733        -0.034511
 H         0.132397         2.929636        -0.891633
 H         1.328887         3.854112        -2.014220
 H         0.273208         2.469793        -2.560407
 H         2.663683         1.414897        -3.365427
 H         4.096296         1.943545        -2.306772
 H         3.737510        -1.121350        -2.469310
 H         0.740968        -0.119196        -0.543119
 H         3.999615        -0.640979         1.028762
 H         2.046802         2.390345         0.717027
 H         3.626709         2.924267         0.000484
