19
Iteration:  2949
 C         0.890871         2.844990        -1.707566
 C         1.982207         1.968267        -1.271665
 C         2.986176         1.511264        -2.324877
 C         3.063931         0.187661        -1.452107
 O         3.801746        -1.095871        -1.483305
 C         1.715671         0.482748        -0.828846
 C         2.894886         0.676232         0.042505
 O         3.513607        -0.027517         1.053168
 C         2.876608         2.264085         0.033183
 H         0.154380         3.036485        -0.961200
 H         1.353234         3.819993        -1.932455
 H         0.561070         2.583508        -2.661174
 H         2.657844         1.185050        -3.323059
 H         3.983793         2.198542        -2.217563
 H         4.689458        -0.855794        -1.893499
 H         0.723767         0.134586        -0.894195
 H         4.052692        -0.712187         0.659747
 H         2.266997         2.615189         0.892765
 H         3.816012         2.667783        -0.046937
