19
Iteration:  2454
 C         0.918307         2.891373        -1.698486
 C         1.947890         1.917695        -1.252369
 C         3.037323         1.401410        -2.311210
 C         3.138729         0.130646        -1.418706
 O         3.747899        -1.040733        -1.727631
 C         1.744788         0.473114        -0.759530
 C         3.074002         0.707964         0.007344
 O         3.503947         0.067011         1.127163
 C         2.775397         2.271170         0.054558
 H        -0.034273         2.910540        -1.092642
 H         1.454577         3.814087        -1.694907
 H         0.603171         2.762140        -2.834333
 H         2.476124         1.260416        -3.217922
 H         3.929839         2.179455        -2.482161
 H         4.498417        -1.199318        -1.160946
 H         0.985708        -0.250655        -0.811949
 H         3.029774        -0.685607         1.422875
 H         2.064714         2.258219         0.842369
 H         3.565197         2.938782        -0.204932
