19
Iteration:  3855charge 0 multiplicity 1
 C         0.911251         2.855461        -1.851581
 C         1.971883         1.888352        -1.300806
 C         3.152226         1.477954        -2.247894
 C         3.091556         0.186668        -1.377691
 O         3.779515        -0.952373        -1.776082
 C         1.751696         0.396924        -0.637782
 C         2.935342         0.757205         0.107995
 O         3.479774        -0.065756         1.133783
 C         2.718180         2.214100         0.001490
 H         0.183194         2.954591        -1.124167
 H         1.202211         3.859660        -2.111646
 H         0.546562         2.397003        -2.745450
 H         2.962177         1.332906        -3.331762
 H         4.017245         2.171494        -2.245659
 H         3.779206        -1.494529        -0.915725
 H         0.862450        -0.234352        -0.707808
 H         4.386856         0.387570         1.003490
 H         2.140256         2.668448         0.855935
 H         3.617841         2.849230        -0.107254
