19
Iteration:  1097charge 0 multiplicity 1
 C         0.876483         2.834139        -1.762886
 C         1.978302         1.945678        -1.409435
 C         3.038312         1.443923        -2.416790
 C         3.093967         0.286798        -1.325873
 O         3.844499        -0.965353        -1.538310
 C         1.710385         0.452114        -0.758208
 C         2.938719         0.711917         0.107939
 O         3.664735        -0.143281         1.006359
 C         2.651844         2.229029         0.090922
 H         0.166843         3.288794        -1.111667
 H         1.428310         3.740151        -2.063361
 H         0.382367         2.599299        -2.733368
 H         2.558554         0.996789        -3.279312
 H         3.959514         2.154981        -2.619344
 H         4.681347        -0.947432        -1.079997
 H         0.859205        -0.216540        -0.726936
 H         3.335412        -0.278005         1.901371
 H         1.818971         2.590564         0.587137
 H         3.448980         2.887494        -0.053549
