19
Iteration:   369
 C         0.828293         2.892266        -1.665361
 C         1.890133         1.873883        -1.259762
 C         3.110958         1.470721        -2.297342
 C         3.169816         0.216905        -1.419834
 O         3.821574        -0.964528        -1.688210
 C         1.783703         0.406637        -0.812184
 C         3.002671         0.734697         0.002184
 O         3.472086        -0.040631         1.175780
 C         2.782602         2.240503        -0.083535
 H         0.097993         3.114053        -0.842808
 H         1.275284         3.848631        -1.992537
 H         0.205393         2.506190        -2.526709
 H         2.611628         1.116293        -3.255118
 H         4.090549         2.124733        -2.558647
 H         4.514448        -1.000221        -1.038281
 H         0.906597        -0.346750        -0.558047
 H         2.906122        -0.806323         1.416069
 H         2.326253         2.609232         0.856844
 H         3.788653         2.817889        -0.256747
