19
Iteration:  1417
 C         0.912498         2.877803        -1.864986
 C         1.965327         1.954735        -1.288992
 C         3.054222         1.439395        -2.245130
 C         3.064019         0.188430        -1.410887
 O         3.763936        -1.048578        -1.572034
 C         1.657674         0.398235        -0.750836
 C         2.965765         0.724132        -0.014711
 O         3.680183         0.071595         1.057617
 C         2.713327         2.184576         0.142220
 H         0.158497         3.026454        -1.041036
 H         1.266157         3.903387        -2.014709
 H         0.468751         2.483957        -2.777627
 H         2.687355         1.477995        -3.237391
 H         3.988068         1.951016        -2.195692
 H         4.671261        -0.894871        -1.832585
 H         0.804518        -0.131006        -0.584568
 H         3.803185        -0.824839         0.753765
 H         1.911606         2.262877         0.898938
 H         3.379613         3.095455         0.084900
