19
Iteration:  4140
 C         0.848120         2.864313        -1.819505
 C         1.934665         1.960456        -1.277485
 C         3.184828         1.456825        -2.301836
 C         3.195565         0.227712        -1.332217
 O         3.881053        -0.932640        -1.676767
 C         1.707532         0.399664        -0.874133
 C         2.926628         0.653438         0.108987
 O         3.443839         0.003577         1.251398
 C         2.754641         2.191108        -0.050920
 H         0.291125         3.149479        -0.904637
 H         1.277169         3.891148        -2.009604
 H         0.197259         2.379125        -2.616226
 H         2.800385         1.167120        -3.262280
 H         3.931784         2.272756        -2.251529
 H         3.244114        -1.704781        -1.645415
 H         0.842285        -0.210134        -0.935752
 H         4.237362        -0.571562         0.994262
 H         2.002679         2.580172         0.675889
 H         3.596017         2.800776        -0.048303
