19
Iteration:  1258charge 0 multiplicity 1
 C         0.895625         2.844627        -1.843736
 C         1.983470         1.973004        -1.295291
 C         3.078841         1.358784        -2.271932
 C         3.023069         0.164840        -1.407960
 O         3.766705        -0.976924        -1.546909
 C         1.702060         0.400182        -0.799728
 C         2.972752         0.715090         0.097579
 O         3.669103         0.036380         1.054564
 C         2.676617         2.267291         0.106691
 H         0.130701         3.010058        -1.092044
 H         1.388544         3.826283        -2.048397
 H         0.526210         2.361109        -2.726081
 H         2.700069         1.383276        -3.347974
 H         3.994220         1.895184        -2.372523
 H         4.550648        -0.494984        -1.802815
 H         0.787470        -0.067832        -0.783697
 H         3.815730        -0.834247         0.614399
 H         1.805686         2.362506         0.772381
 H         3.576390         2.848854         0.264635
