19
Iteration:  3190charge 0 multiplicity 1
 C         0.927227         2.876822        -1.762002
 C         1.934663         1.836055        -1.256846
 C         3.000750         1.486251        -2.244533
 C         3.211076         0.314149        -1.406898
 O         3.751410        -1.025081        -1.684336
 C         1.776992         0.380842        -0.791741
 C         3.080858         0.719281        -0.018353
 O         3.509380        -0.057517         1.129436
 C         2.745812         2.287990        -0.015716
 H         0.281205         3.236906        -0.930211
 H         1.551535         3.801100        -2.068990
 H         0.253408         2.504192        -2.574168
 H         2.800451         1.240363        -3.289393
 H         3.738727         2.255391        -2.331736
 H         4.139210        -1.318045        -0.804097
 H         0.926558        -0.277750        -0.711402
 H         2.677073        -0.501981         1.270459
 H         1.969629         2.509901         0.827418
 H         3.605607         2.979049         0.056670
