19
Iteration:  3613
 C         0.897921         2.881653        -1.718254
 C         1.934976         1.939055        -1.285004
 C         3.053501         1.336221        -2.327567
 C         3.120008         0.193475        -1.392649
 O         3.918673        -0.884849        -1.630328
 C         1.746537         0.417331        -0.810103
 C         2.971384         0.776902         0.031240
 O         3.356068        -0.063724         1.095903
 C         2.837003         2.187364        -0.003565
 H         0.211647         3.219998        -0.870188
 H         1.445421         3.813779        -1.986820
 H         0.257094         2.462075        -2.520185
 H         2.496945         1.205836        -3.260963
 H         3.822129         2.109806        -2.650526
 H         3.567633        -1.615464        -1.029631
 H         1.060628        -0.415310        -0.568484
 H         4.295765         0.182196         1.327543
 H         2.317672         2.434349         1.011909
 H         3.629893         2.922885        -0.216199
