19
Iteration:  3799
 C         0.834295         2.836505        -1.720246
 C         2.031256         1.950357        -1.328891
 C         3.105608         1.413910        -2.376323
 C         3.143496         0.216282        -1.413375
 O         3.843743        -0.946088        -1.678141
 C         1.828149         0.358965        -0.791337
 C         2.935927         0.785376         0.085341
 O         3.326799        -0.119136         1.147545
 C         2.847882         2.316045         0.028191
 H         0.255219         3.058516        -0.861110
 H         1.094502         3.712300        -2.234237
 H         0.099274         2.325780        -2.313180
 H         2.554591         1.230992        -3.274332
 H         3.996889         2.072054        -2.540282
 H         3.906874        -1.564098        -0.913527
 H         0.916796        -0.248427        -0.492397
 H         4.253612         0.261723         1.253226
 H         2.050186         2.639012         0.742572
 H         3.661337         2.950883        -0.063105
