19
Iteration:  2099charge 0 multiplicity 1
 C         0.834658         2.854959        -1.778307
 C         1.991116         1.953993        -1.293205
 C         3.142632         1.450496        -2.241243
 C         3.118889         0.256483        -1.380346
 O         3.692289        -0.996652        -1.681299
 C         1.769794         0.443315        -0.770887
 C         2.997251         0.739668         0.130176
 O         3.655894        -0.125031         0.990348
 C         2.655089         2.286171        -0.019981
 H        -0.038961         2.994481        -1.152042
 H         1.414343         3.749866        -1.844062
 H         0.476924         2.450185        -2.710863
 H         2.896275         1.254644        -3.311727
 H         4.076713         1.997458        -2.115939
 H         4.230701        -1.262805        -0.904966
 H         0.918033        -0.204060        -0.589808
 H         3.105556        -0.237623         1.755007
 H         1.988867         2.282184         0.918273
 H         3.489039         3.027904        -0.135388
