19
Iteration:  1867
 C         0.897628         2.951537        -1.642583
 C         1.911810         1.875088        -1.264903
 C         3.047227         1.418557        -2.329893
 C         3.174820         0.160559        -1.465111
 O         3.957297        -0.927211        -1.647337
 C         1.687925         0.429174        -0.794633
 C         2.991876         0.723539         0.017881
 O         3.448473        -0.108933         1.065530
 C         2.779687         2.204203        -0.056636
 H         0.366670         3.347828        -0.747929
 H         1.184295         3.815277        -2.299093
 H        -0.016341         2.639127        -2.159984
 H         2.570614         1.317910        -3.336115
 H         3.979292         1.966489        -2.389446
 H         4.466672        -1.040813        -0.788507
 H         0.735167        -0.020711        -0.206632
 H         2.746326         0.014468         1.757459
 H         2.114356         2.487761         0.807037
 H         3.716282         2.817568        -0.291029
