19
Iteration:   382charge 0 multiplicity 1
 C         0.831274         2.844081        -1.630461
 C         1.896352         1.959851        -1.250838
 C         3.067982         1.450680        -2.275737
 C         3.156161         0.214071        -1.476643
 O         3.789363        -1.028052        -1.606549
 C         1.839962         0.407131        -0.852434
 C         3.112329         0.681513         0.007967
 O         3.440614        -0.003290         1.105694
 C         2.756098         2.250836        -0.052730
 H         0.217886         3.071768        -0.779907
 H         1.361797         3.749102        -1.940904
 H         0.255169         2.449291        -2.488569
 H         2.759330         1.418446        -3.357991
 H         4.095404         2.146233        -2.161548
 H         4.722919        -0.942712        -1.229123
 H         0.947215        -0.365761        -0.571834
 H         2.656080        -0.560303         1.143981
 H         2.215448         2.568241         0.924236
 H         3.406461         3.192109        -0.537158
