19
Iteration:  2617
 C         0.852334         2.923834        -1.731751
 C         1.958983         1.975216        -1.290273
 C         3.064817         1.401969        -2.342104
 C         3.195948         0.227737        -1.318001
 O         3.689852        -1.035895        -1.738159
 C         1.777940         0.408609        -0.780235
 C         3.010487         0.749696         0.098323
 O         3.577056        -0.077284         1.086534
 C         2.763911         2.278278        -0.003325
 H         0.016998         2.937677        -0.990875
 H         1.386734         3.854532        -1.852758
 H         0.424540         2.713843        -2.783348
 H         2.601656         0.971596        -3.182128
 H         4.016110         1.875321        -2.484735
 H         4.397043        -1.296598        -1.137015
 H         0.795425        -0.172360        -0.710629
 H         3.020975        -0.075203         1.920692
 H         2.114545         2.423829         0.888525
 H         3.703332         2.919889        -0.221724
