19
Iteration:  4532charge 0 multiplicity 1
 C         0.925850         2.804569        -1.751760
 C         1.924293         1.898370        -1.287219
 C         3.092436         1.513323        -2.259386
 C         3.212211         0.234436        -1.499425
 O         3.886913        -0.923955        -1.640882
 C         1.793202         0.398123        -0.838257
 C         3.025156         0.662643        -0.013609
 O         3.299286        -0.012407         1.206669
 C         2.703923         2.217063         0.011363
 H         0.165770         2.937544        -0.952503
 H         1.274421         3.836840        -1.868378
 H         0.666233         2.326883        -2.737164
 H         2.835975         1.280581        -3.302020
 H         3.647358         2.400476        -2.339937
 H         3.710304        -1.535970        -0.897983
 H         1.023298        -0.259060        -0.640092
 H         4.278542        -0.272158         1.193508
 H         2.055608         2.486946         0.803774
 H         3.473568         2.965636        -0.035853
