19
Iteration:  3843
 C         0.888150         2.782649        -1.822422
 C         1.991341         1.966473        -1.257862
 C         3.098300         1.462138        -2.242115
 C         3.151588         0.250702        -1.425257
 O         3.739252        -1.000304        -1.764613
 C         1.807145         0.388050        -0.814054
 C         2.936199         0.738412         0.146880
 O         3.454471        -0.014769         1.138927
 C         2.742602         2.262626         0.040843
 H         0.099563         3.044429        -1.167419
 H         1.371490         3.664733        -2.121184
 H         0.448197         2.272788        -2.656039
 H         2.722825         1.329763        -3.237775
 H         4.052130         2.038489        -2.198161
 H         3.868845        -1.533638        -0.964561
 H         0.986721        -0.357467        -0.574631
 H         4.427858        -0.079138         1.300824
 H         2.061679         2.770023         0.786137
 H         3.708112         2.807159        -0.054011
