19
Iteration:  3886
 C         0.915040         2.962523        -1.804511
 C         1.959403         1.942936        -1.268601
 C         2.998447         1.361112        -2.300210
 C         3.111838         0.170326        -1.364189
 O         3.896469        -0.970569        -1.650158
 C         1.737496         0.448691        -0.868159
 C         3.014981         0.761694         0.059928
 O         3.492883        -0.074599         1.112771
 C         2.685610         2.194995         0.070399
 H        -0.006922         3.028992        -1.215841
 H         1.277219         3.928957        -1.937925
 H         0.632194         2.469555        -2.727085
 H         2.429885         0.995313        -3.138243
 H         3.879786         1.969725        -2.584148
 H         3.884435        -1.442120        -0.821157
 H         0.843326        -0.129778        -0.561350
 H         4.366785         0.259193         0.979997
 H         2.027851         2.542939         0.953161
 H         3.601545         2.916615        -0.028071
