19
Iteration:  2577
 C         0.946224         2.924809        -1.834550
 C         1.964492         1.973209        -1.224310
 C         3.023828         1.375493        -2.301466
 C         3.030982         0.179552        -1.442798
 O         3.793066        -0.926187        -1.703092
 C         1.757148         0.363604        -0.734755
 C         2.921480         0.644767         0.143724
 O         3.658584        -0.018896         1.018595
 C         2.756836         2.220495         0.119104
 H         0.301724         3.458839        -1.057899
 H         1.489686         3.727692        -2.393975
 H         0.367435         2.385091        -2.612617
 H         2.747284         1.470512        -3.404329
 H         3.974374         2.041628        -2.450156
 H         3.643026        -1.665651        -1.064898
 H         0.707222        -0.121108        -0.735679
 H         3.255861         0.080402         1.867645
 H         2.142651         2.632427         0.996229
 H         3.578042         2.851586        -0.276549
