19
Iteration:  2989charge 0 multiplicity 1
 C         0.874826         2.911365        -1.634525
 C         1.989968         1.906183        -1.361261
 C         3.049361         1.354306        -2.367929
 C         3.260330         0.213891        -1.312782
 O         3.730146        -0.999683        -1.706783
 C         1.768163         0.469375        -0.802670
 C         2.974132         0.771242         0.115132
 O         3.414258        -0.045058         1.176313
 C         2.839867         2.252005        -0.062324
 H         0.183306         3.004170        -0.710733
 H         1.411752         3.831062        -1.812570
 H         0.179063         2.652658        -2.480246
 H         2.522229         0.908342        -3.267707
 H         3.761450         2.088812        -2.583886
 H         4.665743        -1.058275        -1.537527
 H         0.808370        -0.124173        -0.850729
 H         3.566507        -0.937193         0.759669
 H         2.105787         2.665184         0.743251
 H         3.642074         3.071963        -0.033672
