19
Iteration:  4255
 C         0.790251         2.916352        -1.742744
 C         1.960816         1.926320        -1.336808
 C         3.176496         1.360538        -2.383751
 C         3.147024         0.184689        -1.462013
 O         3.974202        -0.946743        -1.593025
 C         1.795192         0.507285        -0.820006
 C         2.989534         0.717151         0.082805
 O         3.328794         0.024775         1.200695
 C         2.733489         2.199084         0.088697
 H         0.232560         3.111503        -0.821982
 H         1.108493         3.909849        -1.965185
 H         0.161994         2.469548        -2.463163
 H         2.743358         0.864294        -3.288544
 H         3.996845         2.011955        -2.491649
 H         3.769743        -1.590950        -2.342424
 H         1.033475        -0.257650        -0.670639
 H         3.473504        -0.932309         0.938044
 H         2.081580         2.531609         0.897121
 H         3.679750         2.833636        -0.001326
