19
Iteration:  2490
 C         0.782341         2.863940        -1.621123
 C         2.029341         1.943539        -1.358981
 C         3.072902         1.377474        -2.387261
 C         3.139780         0.238326        -1.345171
 O         3.747644        -0.973851        -1.675060
 C         1.757351         0.497659        -0.829201
 C         2.951378         0.696109         0.063334
 O         3.513974        -0.030469         1.190343
 C         2.880789         2.223165        -0.064745
 H         0.049959         2.913047        -0.815349
 H         1.227479         3.834215        -1.544650
 H         0.297182         2.777033        -2.550462
 H         2.581482         1.011977        -3.350450
 H         4.010063         1.943668        -2.626058
 H         4.455279        -1.147586        -1.060658
 H         1.038324        -0.323978        -1.051851
 H         2.890024        -0.737064         1.337507
 H         2.443133         2.809308         0.744648
 H         3.693995         2.834960        -0.191444
