19
Iteration:  3965charge 0 multiplicity 1
 C         0.843145         2.731168        -1.748986
 C         2.079092         1.956007        -1.273464
 C         3.095421         1.410952        -2.363061
 C         3.085494         0.258508        -1.442785
 O         3.830784        -0.919032        -1.697033
 C         1.709893         0.422649        -0.788322
 C         2.955301         0.709162         0.016607
 O         3.394226        -0.057890         1.190514
 C         2.856584         2.244346         0.000912
 H         0.313085         2.950811        -0.854264
 H         1.190325         3.675042        -2.156168
 H         0.146006         2.320940        -2.472515
 H         2.659819         1.242989        -3.405849
 H         4.060718         1.947197        -2.453745
 H         4.144979        -1.272804        -0.840953
 H         0.676782         0.135093        -0.613036
 H         3.879379         0.494467         1.788294
 H         2.191792         2.485563         0.901976
 H         3.873466         2.781405         0.010293
