19
Iteration:  1325charge 0 multiplicity 1
 C         0.795895         2.740009        -1.623805
 C         2.078209         1.930649        -1.322627
 C         3.078917         1.359831        -2.383735
 C         3.137197         0.217863        -1.390078
 O         3.772395        -0.971641        -1.744081
 C         1.773759         0.493260        -0.845844
 C         2.964495         0.730924         0.145554
 O         3.422341         0.133934         1.257058
 C         2.859771         2.165396        -0.054665
 H         0.158034         2.887020        -0.790158
 H         1.033844         3.794999        -1.852963
 H         0.246701         2.334073        -2.498949
 H         2.623519         1.156959        -3.392903
 H         4.008858         1.856468        -2.656731
 H         4.768299        -0.826550        -1.768661
 H         0.698812         0.063778        -0.725395
 H         3.696326        -0.783956         1.020210
 H         1.959967         2.334476         0.596011
 H         3.668096         2.864002         0.187731
