19
Iteration:   389charge 0 multiplicity 1
 C         0.825434         2.843287        -1.643725
 C         1.960353         1.899301        -1.271668
 C         3.042060         1.485861        -2.294723
 C         3.180675         0.184246        -1.447187
 O         3.779941        -1.063317        -1.589674
 C         1.845476         0.408191        -0.833648
 C         3.089323         0.759803        -0.049638
 O         3.438054        -0.007250         1.082156
 C         2.786110         2.266871         0.009035
 H         0.108591         3.050992        -0.773939
 H         1.192630         3.840985        -1.998740
 H         0.122116         2.551944        -2.480221
 H         2.774194         1.495169        -3.379535
 H         3.904017         2.135527        -2.083971
 H         4.699493        -0.927850        -1.377384
 H         0.987131        -0.314177        -0.672150
 H         2.669443        -0.527077         1.275355
 H         2.058607         2.509718         0.731840
 H         3.486255         3.064360        -0.126230
