19
Iteration:  2611
 C         0.885697         2.914792        -1.781343
 C         1.964982         1.945122        -1.275345
 C         3.021537         1.386739        -2.281703
 C         3.188957         0.189305        -1.336640
 O         3.697689        -1.009793        -1.743611
 C         1.782444         0.457442        -0.800175
 C         3.026856         0.727729         0.060860
 O         3.580391        -0.032710         1.077197
 C         2.756879         2.196539         0.021579
 H         0.076794         3.068401        -1.028061
 H         1.323891         3.955698        -1.821485
 H         0.357620         2.702770        -2.684813
 H         2.576238         0.962224        -3.257836
 H         3.978829         2.037565        -2.327669
 H         4.276167        -1.381179        -1.007259
 H         0.862548        -0.052411        -0.625901
 H         3.080247        -0.081927         1.899132
 H         2.268911         2.581610         0.941096
 H         3.463833         2.997571        -0.103786
