19
Iteration:  2284
 C         0.902158         2.896292        -1.760332
 C         1.990479         1.948838        -1.294176
 C         2.979499         1.466500        -2.345960
 C         3.215138         0.251430        -1.388936
 O         3.692885        -1.014604        -1.622870
 C         1.781316         0.381330        -0.812197
 C         2.980123         0.663952         0.036162
 O         3.572955        -0.011809         1.070578
 C         2.762165         2.180085         0.091161
 H        -0.096364         2.986496        -1.369716
 H         1.369818         3.913119        -1.667090
 H         0.591689         2.639823        -2.703414
 H         2.506166         1.223446        -3.341266
 H         3.906228         2.023395        -2.348343
 H         4.624999        -0.932552        -1.376273
 H         0.866521        -0.183625        -1.115143
 H         3.100144         0.123688         1.903044
 H         2.115167         2.405186         0.916718
 H         3.671311         2.684388         0.244708
