19
Iteration:  1624charge 0 multiplicity 1
 C         0.868708         2.792788        -1.721758
 C         1.997173         1.974483        -1.263280
 C         3.084256         1.464210        -2.276682
 C         3.133079         0.177546        -1.422960
 O         3.782954        -1.036767        -1.631008
 C         1.714892         0.505919        -0.869644
 C         2.937473         0.682942         0.071592
 O         3.583774        -0.013036         0.986999
 C         2.776052         2.219165         0.094611
 H         0.053186         2.901721        -0.995559
 H         1.134566         3.836717        -1.874131
 H         0.543448         2.426385        -2.680831
 H         2.401761         1.304239        -3.195411
 H         4.020470         1.861452        -2.688587
 H         4.580411        -1.078915        -1.090134
 H         0.676489         0.009626        -0.787110
 H         3.144685         0.171549         1.830850
 H         2.124873         2.542998         0.908094
 H         3.556958         2.937754         0.145262
