19
Iteration:   484
 C         0.943297         2.887142        -1.766376
 C         1.927373         1.910828        -1.295743
 C         3.001369         1.366047        -2.271769
 C         3.182576         0.207473        -1.348113
 O         3.827757        -0.910141        -1.675319
 C         1.730788         0.481579        -0.808952
 C         2.995193         0.669406         0.031127
 O         3.639001        -0.042857         1.040759
 C         2.645133         2.218524         0.040132
 H         0.219449         3.007009        -0.981661
 H         1.388080         3.846503        -1.965818
 H         0.371842         2.641479        -2.611598
 H         2.446947         1.160001        -3.203488
 H         3.919077         2.093024        -2.454613
 H         4.107108        -1.501009        -0.966091
 H         0.920368        -0.152167        -0.759249
 H         2.941230        -0.186265         1.713247
 H         1.913492         2.357917         0.926955
 H         3.445105         3.016665         0.100984
