19
Iteration:  4603
 C         0.861460         2.873273        -1.753751
 C         1.980767         1.943444        -1.324197
 C         3.052521         1.502849        -2.236008
 C         3.162470         0.235077        -1.373642
 O         3.923712        -0.970536        -1.587641
 C         1.703375         0.304979        -0.882202
 C         2.917198         0.720037         0.029148
 O         3.463747        -0.049891         0.990904
 C         2.793523         2.236953         0.061433
 H         0.223125         3.309276        -1.007837
 H         1.204156         3.798794        -2.246465
 H         0.379411         2.382360        -2.559886
 H         2.668816         1.295888        -3.241580
 H         3.954482         2.059113        -2.437154
 H         4.219170        -1.311832        -0.694794
 H         0.877239        -0.409153        -0.795068
 H         2.789718        -0.028442         1.748526
 H         2.267420         2.578238         1.036742
 H         3.804699         2.778251         0.105107
