19
Iteration:   921
 C         0.844245         2.962268        -1.783045
 C         1.906794         1.937601        -1.281534
 C         2.980443         1.422701        -2.325311
 C         3.213552         0.188680        -1.401596
 O         3.835423        -1.008549        -1.593377
 C         1.753013         0.372366        -0.825435
 C         3.019572         0.713053         0.009553
 O         3.550345         0.011893         1.046991
 C         2.734499         2.136470         0.059440
 H         0.165268         3.291291        -0.956524
 H         1.529831         3.782718        -2.203674
 H         0.231635         2.643665        -2.628565
 H         2.726197         1.331440        -3.396557
 H         3.833537         2.210388        -2.316900
 H         4.393437        -1.243844        -0.769021
 H         1.116545        -0.441009        -0.713053
 H         3.042002         0.108902         1.859737
 H         2.051870         2.360790         0.921879
 H         3.553508         3.025475         0.129773
