19
Iteration:  3901
 C         0.914931         2.877061        -1.788008
 C         1.958747         1.964154        -1.289086
 C         2.953829         1.409110        -2.384654
 C         3.212521         0.229559        -1.429765
 O         3.873533        -0.976754        -1.589881
 C         1.764323         0.371092        -0.712981
 C         2.927711         0.703396         0.047715
 O         3.443750        -0.051903         1.078422
 C         2.746212         2.242204         0.031337
 H         0.297346         3.162699        -0.923714
 H         1.429870         3.922978        -1.775021
 H         0.545314         2.823624        -2.811320
 H         2.465587         1.218780        -3.451918
 H         3.800969         2.005931        -2.782843
 H         4.005317        -1.314149        -0.659143
 H         0.966289        -0.321067        -0.777023
 H         4.401703        -0.191922         1.239651
 H         1.945791         2.513169         0.790964
 H         3.561034         3.001807         0.255115
