19
Iteration:  4678charge 0 multiplicity 1
 C         0.825255         2.860422        -1.871681
 C         1.949694         1.932309        -1.250356
 C         3.097378         1.519153        -2.255795
 C         3.191946         0.210928        -1.423595
 O         3.820243        -1.062409        -1.643928
 C         1.740760         0.411187        -0.891289
 C         2.957803         0.667619         0.096346
 O         3.504481        -0.051012         1.149096
 C         2.796227         2.240015         0.092684
 H        -0.042803         2.970600        -1.213713
 H         1.167298         3.952857        -1.781000
 H         0.496843         2.655891        -2.899247
 H         2.685272         1.241582        -3.277571
 H         3.780978         2.357058        -2.265368
 H         4.727828        -0.816175        -1.683670
 H         0.913572        -0.285012        -0.944188
 H         2.886011         0.245472         1.801296
 H         2.083780         2.432858         0.924039
 H         3.639640         2.875329        -0.079000
