19
Iteration:  4803charge 0 multiplicity 1
 C         0.929518         2.951530        -1.884370
 C         1.990452         1.909702        -1.374905
 C         2.988503         1.419768        -2.311635
 C         3.175575         0.189528        -1.339962
 O         3.866044        -0.871070        -1.565692
 C         1.744401         0.425934        -0.804814
 C         2.986040         0.624017         0.055747
 O         3.594102        -0.055258         1.135426
 C         2.680856         2.169018         0.128895
 H         0.122312         2.929523        -1.142457
 H         1.388060         3.866156        -2.046020
 H         0.356984         2.653893        -2.758303
 H         2.535614         0.979862        -3.142818
 H         3.738176         2.136648        -2.547942
 H         3.695725        -1.238026        -2.426269
 H         0.798449        -0.188948        -0.849771
 H         3.048957        -0.170248         1.923017
 H         1.826410         2.451042         0.787206
 H         3.437400         3.053626         0.086044
