19
Iteration:  1869charge 0 multiplicity 1
 C         0.889542         2.963006        -1.642442
 C         1.909317         1.890076        -1.262177
 C         3.062352         1.402607        -2.339076
 C         3.188443         0.165087        -1.463196
 O         3.933817        -0.917974        -1.645485
 C         1.689537         0.416851        -0.801381
 C         3.007007         0.716702         0.044594
 O         3.453532        -0.111169         1.064069
 C         2.769381         2.206646        -0.067911
 H         0.405634         3.262727        -0.687917
 H         1.169602         3.802052        -2.349158
 H        -0.058847         2.653287        -2.193363
 H         2.577447         1.296633        -3.343756
 H         3.985900         2.003027        -2.248833
 H         4.471862        -1.090164        -0.812428
 H         0.728316        -0.012704        -0.262577
 H         2.803870        -0.001150         1.740270
 H         2.130275         2.515335         0.750652
 H         3.648446         2.824765        -0.304441
