19
Iteration:   792charge 0 multiplicity 1
 C         0.843395         2.907616        -1.805956
 C         1.955132         1.956695        -1.334081
 C         3.115071         1.357007        -2.281761
 C         3.130938         0.177122        -1.372933
 O         3.780515        -0.990738        -1.641746
 C         1.768391         0.373721        -0.902097
 C         2.836127         0.747866         0.210927
 O         3.719839        -0.054788         1.030022
 C         2.627169         2.339351         0.076892
 H         0.272988         3.032347        -0.850245
 H         1.328421         3.882747        -1.930080
 H         0.191204         2.535146        -2.592963
 H         2.707815         1.203298        -3.259961
 H         4.191169         1.603349        -2.417833
 H         4.642487        -0.912170        -1.275363
 H         0.936926        -0.232811        -1.085806
 H         3.276074        -0.321419         1.898367
 H         1.904919         2.634591         0.777797
 H         3.468913         2.916196         0.044938
