19
Iteration:    90charge 0 multiplicity 1
 C         0.869181         2.795187        -1.819458
 C         1.949769         1.972184        -1.155682
 C         3.043803         1.490178        -2.315302
 C         3.138357         0.203297        -1.483099
 O         3.798944        -1.003758        -1.726856
 C         1.756245         0.483226        -0.733655
 C         3.029079         0.657207        -0.005539
 O         3.517806         0.051998         1.158353
 C         2.799004         2.202805         0.085833
 H        -0.040703         2.907356        -1.235050
 H         1.152653         3.838590        -2.061522
 H         0.567058         2.284950        -2.734336
 H         2.388988         1.233729        -3.191679
 H         3.937149         2.037187        -2.602731
 H         4.485070        -1.035284        -1.038641
 H         0.789473        -0.177938        -0.480179
 H         3.092566        -0.777170         1.358110
 H         2.142407         2.316203         0.904012
 H         3.636053         2.884176        -0.081953
