19
Iteration:   475charge 0 multiplicity 1
 C         0.881846         2.920550        -1.809609
 C         1.964993         1.930180        -1.242040
 C         3.023273         1.444903        -2.225610
 C         3.085370         0.143606        -1.414703
 O         3.874490        -0.997681        -1.710936
 C         1.717031         0.420613        -0.793543
 C         3.058453         0.708898         0.018328
 O         3.602359        -0.016614         1.019621
 C         2.661541         2.253887         0.101914
 H         0.142046         3.041252        -0.974692
 H         1.440679         3.835085        -1.975431
 H         0.481388         2.573462        -2.771438
 H         2.617596         1.193640        -3.217381
 H         3.917448         2.020485        -2.270882
 H         4.128067        -1.525249        -0.922407
 H         0.881359        -0.413174        -0.634432
 H         3.029736         0.048488         1.819964
 H         1.954399         2.397940         0.983974
 H         3.315651         3.111436         0.013719
