19
Iteration:  3437charge 0 multiplicity 1
 C         0.943936         2.924793        -1.711486
 C         1.952043         1.875332        -1.366358
 C         3.037233         1.380672        -2.370214
 C         3.186199         0.187727        -1.397077
 O         3.918681        -0.888987        -1.670146
 C         1.694938         0.441408        -0.773766
 C         2.878242         0.706399         0.106656
 O         3.449613        -0.085935         1.124521
 C         2.722840         2.261262         0.021395
 H         0.209255         2.933161        -0.834659
 H         1.435894         3.863393        -1.863106
 H         0.658986         2.601314        -2.733641
 H         2.403415         1.232131        -3.226315
 H         3.958287         1.903334        -2.527596
 H         3.619728        -1.553549        -1.067862
 H         1.100266        -0.341481        -0.463207
 H         4.370639         0.129099         1.320298
 H         1.956187         2.617407         0.652532
 H         3.645671         2.810297        -0.021536
