19
Iteration:  2011
 C         0.890183         2.959704        -1.562128
 C         1.901489         1.976569        -1.323796
 C         3.031018         1.395416        -2.290409
 C         3.197280         0.139234        -1.432480
 O         3.981096        -1.044160        -1.673572
 C         1.727028         0.385127        -0.853485
 C         2.999387         0.754019        -0.047499
 O         3.442300        -0.023154         1.070170
 C         2.736105         2.234607        -0.010711
 H         0.376968         3.249467        -0.666926
 H         1.280820         3.848366        -2.074180
 H         0.089849         2.663456        -2.220401
 H         2.531687         1.169673        -3.248027
 H         3.838711         2.045928        -2.457201
 H         4.047678        -1.272025        -0.684862
 H         0.882537        -0.084011        -0.628378
 H         2.874548         0.059860         1.816594
 H         2.112889         2.357976         0.881195
 H         3.648915         2.823633        -0.212405
