19
Iteration:  1484
 C         0.834644         2.795633        -1.688113
 C         2.026167         1.926980        -1.307598
 C         3.007196         1.393444        -2.411351
 C         3.113442         0.177208        -1.458487
 O         3.888295        -0.951268        -1.587285
 C         1.806650         0.511483        -0.825311
 C         3.082946         0.736004         0.017207
 O         3.359053        -0.047384         1.173793
 C         2.772432         2.300727         0.053710
 H         0.264248         2.953208        -0.733267
 H         1.190664         3.829723        -1.942897
 H         0.294359         2.336707        -2.494108
 H         2.308806         1.177147        -3.230563
 H         3.944302         1.902456        -2.622324
 H         3.675724        -1.564054        -2.362847
 H         0.810107         0.108326        -0.431280
 H         4.282443        -0.441115         1.258571
 H         2.191344         2.397790         1.003531
 H         3.598756         3.110332         0.230962
