19
Iteration:  3609
 C         0.913603         2.868622        -1.705835
 C         1.958830         1.950996        -1.275778
 C         3.039234         1.365635        -2.295180
 C         3.075871         0.178716        -1.411981
 O         3.926592        -0.878060        -1.619674
 C         1.777027         0.421334        -0.804684
 C         2.924240         0.758244        -0.013285
 O         3.377564        -0.051764         1.114787
 C         2.824371         2.169258        -0.022404
 H         0.244586         3.301012        -0.922531
 H         1.414329         3.808387        -1.898201
 H         0.334704         2.489187        -2.570948
 H         2.490807         1.120319        -3.260092
 H         3.887897         1.984528        -2.737224
 H         3.613742        -1.518815        -0.999083
 H         1.075993        -0.387509        -0.593922
 H         4.304657         0.139175         1.280824
 H         2.303273         2.380047         0.943253
 H         3.541723         2.934944        -0.197502
