19
Iteration:  2445
 C         0.971900         2.922766        -1.765206
 C         1.904560         1.904663        -1.209215
 C         2.999618         1.404236        -2.288256
 C         3.105652         0.200485        -1.464953
 O         3.748469        -1.046832        -1.698011
 C         1.701192         0.430552        -0.791905
 C         3.096309         0.687650        -0.024222
 O         3.544065         0.078748         1.139317
 C         2.807837         2.216266         0.078093
 H         0.031137         2.941757        -1.162640
 H         1.304882         3.887803        -1.830837
 H         0.669495         2.453507        -2.669064
 H         2.479472         1.178711        -3.234779
 H         3.892700         2.097884        -2.401775
 H         4.551045        -0.999737        -1.177578
 H         0.914244        -0.225303        -1.005482
 H         2.916232        -0.564911         1.429692
 H         2.309046         2.445998         1.010855
 H         3.447421         3.001634         0.183810
