19
Iteration:  2193
 C         0.852038         2.881465        -1.762869
 C         1.930653         1.988506        -1.337119
 C         3.011831         1.372817        -2.366205
 C         3.224104         0.285553        -1.358755
 O         3.837012        -0.886573        -1.679657
 C         1.723653         0.485360        -0.708981
 C         2.950558         0.716492         0.151301
 O         3.500205        -0.200776         1.077218
 C         2.841313         2.262196        -0.017245
 H         0.208368         3.224118        -0.905597
 H         1.429323         3.770011        -2.129785
 H         0.096991         2.411405        -2.387209
 H         2.477937         0.938324        -3.227997
 H         3.938236         1.825618        -2.722632
 H         4.249566        -1.419385        -0.980781
 H         1.128173        -0.311214        -0.967466
 H         2.729448        -0.360170         1.710801
 H         2.359033         2.604817         0.858766
 H         3.819924         2.736660        -0.195471
