19
Iteration:  1446
 C         0.867000         2.851361        -1.867083
 C         1.891878         1.874441        -1.301607
 C         3.076469         1.456931        -2.192820
 C         3.179570         0.267038        -1.346839
 O         3.687100        -1.014425        -1.610856
 C         1.735987         0.363262        -0.809909
 C         2.933133         0.727328         0.118235
 O         3.624032         0.027342         1.124569
 C         2.799611         2.227812         0.063048
 H         0.083504         2.945209        -1.109919
 H         1.299776         3.855222        -1.885855
 H         0.308247         2.681829        -2.833435
 H         2.829364         1.336989        -3.353251
 H         3.985209         2.185267        -2.244943
 H         4.115539        -1.006060        -2.468314
 H         0.901884        -0.358042        -0.794499
 H         4.108989        -0.614432         0.571825
 H         2.198024         2.648803         0.879723
 H         3.622295         2.825622        -0.301934
