19
Iteration:   653charge 0 multiplicity 1
 C         0.869848         2.910869        -1.769056
 C         1.963529         1.959368        -1.287210
 C         3.066422         1.398134        -2.299894
 C         3.125342         0.288854        -1.406857
 O         3.757475        -0.908688        -1.558779
 C         1.775831         0.379482        -0.866228
 C         2.956008         0.678476         0.091592
 O         3.612229        -0.113698         1.039552
 C         2.700782         2.213023         0.027611
 H         0.117655         3.013885        -0.976583
 H         1.259259         3.866234        -1.978428
 H         0.415104         2.394906        -2.626420
 H         2.558967         0.982199        -3.225955
 H         3.924018         2.029427        -2.560212
 H         4.634583        -1.001043        -1.078993
 H         1.134877        -0.391740        -0.918797
 H         3.155106        -0.087482         1.881743
 H         2.025332         2.723805         0.725486
 H         3.606668         2.815233        -0.197281
