19
Iteration:  4441
 C         0.769369         2.849802        -1.847960
 C         1.977472         1.950306        -1.278608
 C         3.088178         1.529613        -2.254157
 C         3.190256         0.224484        -1.356417
 O         3.968344        -0.963186        -1.449908
 C         1.782770         0.405873        -0.914996
 C         2.907820         0.686960         0.051288
 O         3.434046        -0.062057         1.104434
 C         2.775697         2.256687         0.048633
 H         0.044803         3.186629        -1.036025
 H         1.059219         3.855931        -2.168726
 H         0.390471         2.289211        -2.694560
 H         2.607638         1.081113        -3.083031
 H         3.723159         2.329031        -2.582468
 H         3.883610        -1.315969        -2.393814
 H         0.863035        -0.247508        -0.963516
 H         3.400674        -1.036760         0.876727
 H         2.208447         2.610674         0.869325
 H         3.728906         2.738540        -0.034828
