19
Iteration:  1844
 C         0.921776         2.919572        -1.729569
 C         2.008568         1.990707        -1.213227
 C         2.844697         1.336956        -2.353874
 C         3.147333         0.176329        -1.409046
 O         4.010049        -0.871377        -1.654566
 C         1.720463         0.420798        -0.806482
 C         2.955442         0.717735         0.059858
 O         3.423872        -0.086484         1.036965
 C         2.890260         2.192243         0.056112
 H         0.215500         3.257139        -0.926020
 H         1.257145         3.873795        -2.289757
 H         0.187067         2.488332        -2.394143
 H         2.234724         1.048663        -3.241249
 H         3.651920         1.979312        -2.710990
 H         4.312291        -1.219647        -0.801777
 H         0.791757        -0.276098        -0.901583
 H         2.729876        -0.182443         1.666058
 H         2.173259         2.480717         0.892059
 H         3.891939         2.751610        -0.042723
