19
Iteration:   512
 C         0.852961         2.907192        -1.718186
 C         1.940911         1.959094        -1.336470
 C         2.994507         1.405779        -2.408877
 C         3.131643         0.220220        -1.387045
 O         3.872445        -0.894571        -1.586936
 C         1.814002         0.371708        -0.836114
 C         2.866048         0.679345         0.132536
 O         3.570869        -0.118639         1.075349
 C         2.810082         2.273489         0.021522
 H         0.186312         3.152107        -0.841099
 H         1.212528         3.957897        -1.989955
 H         0.080480         2.571515        -2.498410
 H         2.500448         1.230725        -3.369755
 H         3.796866         2.072622        -2.632371
 H         4.336820        -1.184115        -0.803506
 H         1.046253        -0.488986        -0.904861
 H         2.936215        -0.494124         1.680344
 H         2.342609         2.832235         0.774313
 H         3.791884         2.685479        -0.222201
