19
Iteration:  3828charge 0 multiplicity 1
 C         0.861622         2.789343        -1.805647
 C         1.955236         1.950246        -1.257201
 C         3.106254         1.469390        -2.290750
 C         3.195420         0.199398        -1.358858
 O         3.742630        -0.996099        -1.728355
 C         1.779283         0.463329        -0.917669
 C         3.080136         0.744700         0.013322
 O         3.386929        -0.044322         1.237571
 C         2.807706         2.264080         0.108260
 H         0.077460         2.917747        -0.944121
 H         1.127915         3.678530        -2.455853
 H         0.225714         2.302256        -2.618734
 H         2.515479         1.101710        -3.144603
 H         3.900489         2.207793        -2.564844
 H         3.922170        -1.555211        -0.908085
 H         0.846132        -0.067078        -0.821396
 H         4.375140        -0.032037         1.069425
 H         2.113375         2.289823         0.979913
 H         3.632360         3.165175        -0.016489
