19
Iteration:  3147charge 0 multiplicity 1
 C         0.919733         2.919717        -1.702729
 C         1.946113         1.943007        -1.374441
 C         3.050510         1.335429        -2.312335
 C         3.162500         0.171300        -1.278469
 O         3.916925        -0.864802        -1.694478
 C         1.592954         0.520056        -0.861315
 C         2.920557         0.695303         0.099920
 O         3.496549        -0.104351         1.065913
 C         2.840207         2.164222        -0.011008
 H         0.306011         2.858322        -0.814322
 H         1.272457         3.993897        -1.839126
 H         0.143477         2.564413        -2.420435
 H         2.529687         1.112333        -3.252476
 H         3.996821         1.795650        -2.719529
 H         4.473843        -1.250522        -0.959260
 H         0.684843        -0.116223        -0.850414
 H         3.207041         0.044839         1.991926
 H         2.161309         2.497973         0.921983
 H         3.661428         2.943183        -0.108368
