19
Iteration:  4873
 C         0.820434         2.717915        -1.703563
 C         1.985615         1.969338        -1.314057
 C         3.196390         1.392943        -2.361344
 C         3.206717         0.262792        -1.418838
 O         3.721664        -0.960698        -1.724937
 C         1.818946         0.431827        -0.851956
 C         2.968277         0.744408         0.054959
 O         3.447736        -0.040799         1.224587
 C         2.777699         2.278895         0.074068
 H         0.087783         2.662035        -0.912878
 H         1.046246         3.768653        -1.998384
 H         0.186078         2.269926        -2.473835
 H         2.718813         0.957744        -3.246323
 H         4.070679         1.988623        -2.629318
 H         4.666487        -0.981631        -1.647365
 H         0.832774        -0.033611        -1.106733
 H         2.920455         0.232191         1.971064
 H         2.001134         2.541068         0.804025
 H         3.711361         2.967364         0.112039
