19
Iteration:   122charge 0 multiplicity 1
 C         0.868450         2.865246        -1.780599
 C         1.941933         1.903786        -1.338252
 C         3.068146         1.486613        -2.299423
 C         3.212585         0.275425        -1.368150
 O         3.744671        -1.012347        -1.607709
 C         1.774336         0.429575        -0.797010
 C         2.932851         0.679821         0.097128
 O         3.649020        -0.087215         1.006517
 C         2.694993         2.263220         0.061352
 H         0.199893         3.037303        -0.923952
 H         1.319814         3.884803        -2.066713
 H         0.229947         2.478752        -2.604139
 H         2.538966         1.126728        -3.238879
 H         3.819637         2.218999        -2.645700
 H         4.634856        -1.032761        -1.124259
 H         0.782570        -0.226828        -0.584475
 H         3.085733        -0.438206         1.725107
 H         1.971295         2.680911         0.764868
 H         3.444679         2.941314         0.029825
