19
Iteration:  3531charge 0 multiplicity 1
 C         0.784296         2.775917        -1.815608
 C         2.004121         1.941699        -1.182282
 C         3.126525         1.454803        -2.321730
 C         3.202549         0.225756        -1.481390
 O         3.746232        -1.022619        -1.676483
 C         1.768849         0.486769        -0.785847
 C         3.021580         0.709771        -0.009334
 O         3.452323        -0.060826         1.096978
 C         2.795253         2.213750         0.117258
 H         0.018723         3.103014        -1.160748
 H         1.224208         3.758915        -2.133709
 H         0.433170         2.521896        -2.802353
 H         2.494388         1.390577        -3.197908
 H         3.982613         2.145043        -2.365844
 H         4.075952        -1.349681        -0.762342
 H         0.750177         0.201975        -0.647647
 H         3.968739         0.461557         1.776733
 H         1.954063         2.534131         0.755884
 H         3.721886         2.782444         0.168625
