19
Iteration:  2422charge 0 multiplicity 1
 C         0.907705         2.936606        -1.830908
 C         1.961344         1.959336        -1.336406
 C         3.058181         1.464743        -2.311064
 C         3.131950         0.208069        -1.396974
 O         3.714614        -0.971975        -1.665191
 C         1.749176         0.407687        -0.767324
 C         2.905692         0.625558         0.122414
 O         3.633236        -0.037671         1.090692
 C         2.759375         2.184108         0.055785
 H         0.142439         3.271909        -1.104364
 H         1.415437         3.769480        -2.134730
 H         0.372852         2.387718        -2.612528
 H         2.449720         1.255697        -3.176390
 H         3.807503         2.312847        -2.503861
 H         4.631977        -1.041327        -1.313180
 H         0.963938        -0.277660        -0.603695
 H         3.315258        -0.574384         1.862557
 H         2.276651         2.746865         0.859490
 H         3.616061         2.793714         0.105651
