19
Iteration:  1905charge 0 multiplicity 1
 C         0.854391         2.828830        -1.765289
 C         2.001999         1.961049        -1.262063
 C         3.098824         1.453194        -2.321645
 C         3.244989         0.316728        -1.359503
 O         3.695691        -1.014151        -1.676600
 C         1.764359         0.451256        -0.875587
 C         2.904189         0.673142         0.090723
 O         3.615992        -0.024938         1.033110
 C         2.726903         2.184490         0.103420
 H         0.229836         3.020889        -0.852830
 H         1.230024         3.817122        -1.997287
 H         0.316372         2.191448        -2.500636
 H         2.590726         1.327297        -3.280628
 H         3.938496         2.193939        -2.595737
 H         3.975971        -1.463366        -0.832678
 H         0.979684        -0.143386        -1.062341
 H         3.163519        -0.238567         1.828579
 H         2.087764         2.649763         0.817005
 H         3.597002         2.773039         0.062452
