19
Iteration:  1030charge 0 multiplicity 1
 C         0.839634         2.812293        -1.701473
 C         1.979739         1.940206        -1.299607
 C         3.059333         1.318159        -2.353063
 C         3.164431         0.235374        -1.316239
 O         3.878968        -0.889331        -1.798318
 C         1.782939         0.429427        -0.846002
 C         3.023508         0.747868         0.107617
 O         3.455897        -0.015295         1.175049
 C         2.774616         2.261937        -0.046216
 H         0.286443         2.989892        -0.751984
 H         1.098297         3.887824        -1.997619
 H         0.174067         2.388090        -2.440096
 H         2.550019         0.593114        -3.037803
 H         4.056186         1.908122        -2.543268
 H         3.931626        -1.596429        -1.082992
 H         0.893379        -0.317152        -0.743945
 H         2.777655         0.043101         1.914391
 H         2.007268         2.573748         0.661600
 H         3.626334         2.994184         0.061672
