19
Iteration:  3681charge 0 multiplicity 1
 C         0.870587         2.758593        -1.812236
 C         2.004643         1.953646        -1.249803
 C         3.111590         1.520541        -2.272504
 C         3.161616         0.158861        -1.370465
 O         3.791310        -1.014007        -1.747787
 C         1.728995         0.521838        -0.839831
 C         2.949465         0.690095         0.054114
 O         3.432244         0.026206         1.182064
 C         2.793437         2.206958         0.044639
 H         0.090363         2.850775        -1.058869
 H         1.039015         3.795056        -2.237467
 H         0.332991         2.117404        -2.518704
 H         2.678957         1.546883        -3.279998
 H         4.056143         2.050683        -2.264857
 H         3.855197        -1.681098        -1.061840
 H         0.839390        -0.031582        -0.539504
 H         4.396161         0.037308         1.114723
 H         2.139437         2.511394         0.860867
 H         3.786592         2.810219         0.006139
