19
Iteration:  3658
 C         0.849062         2.736290        -1.768653
 C         2.027554         1.954496        -1.280305
 C         3.106762         1.414259        -2.347425
 C         3.170451         0.241185        -1.388860
 O         3.763021        -0.908765        -1.751941
 C         1.802063         0.446927        -0.767162
 C         3.044647         0.744512         0.038319
 O         3.318405        -0.040398         1.178175
 C         2.814904         2.283564         0.095729
 H         0.193912         3.004875        -0.934989
 H         1.068853         3.716909        -2.320880
 H         0.211631         2.063659        -2.355662
 H         2.742300         1.119892        -3.338930
 H         4.106795         1.822962        -2.518498
 H         3.809153        -1.528051        -0.952161
 H         0.940112        -0.190254        -0.794134
 H         4.258267        -0.388509         1.211761
 H         2.095391         2.710367         0.837112
 H         3.718927         2.934385        -0.015872
