19
Iteration:   570charge 0 multiplicity 1
 C         0.807244         2.796311        -1.710131
 C         1.992240         1.991453        -1.297068
 C         3.061512         1.389948        -2.329519
 C         3.221328         0.186211        -1.310598
 O         3.828293        -0.914226        -1.721422
 C         1.772120         0.444416        -0.846659
 C         2.972595         0.745201         0.098391
 O         3.520495        -0.118442         1.105568
 C         2.774037         2.302277        -0.008680
 H         0.146070         2.890655        -0.845104
 H         1.166595         3.821671        -2.074769
 H         0.297126         2.336246        -2.550267
 H         2.466101         1.013915        -3.156723
 H         3.836865         2.197796        -2.620008
 H         3.877310        -1.555041        -0.965014
 H         1.017736        -0.159271        -1.042559
 H         2.956059        -0.074213         1.932854
 H         2.060533         2.693252         0.758250
 H         3.631407         3.014595        -0.118786
