19
Iteration:  1043
 C         0.831359         2.857614        -1.662808
 C         1.986269         1.895998        -1.411735
 C         3.021348         1.379511        -2.334830
 C         3.181049         0.180527        -1.370410
 O         3.944605        -0.899063        -1.709290
 C         1.751935         0.447202        -0.765951
 C         2.987472         0.718797         0.054172
 O         3.455867        -0.022092         1.168377
 C         2.758492         2.177768        -0.021432
 H         0.235760         3.111010        -0.777075
 H         1.278088         3.759887        -2.129148
 H         0.102241         2.450592        -2.435948
 H         2.610666         1.319234        -3.334288
 H         3.910590         2.097413        -2.676059
 H         3.929412        -1.564635        -1.038853
 H         0.729937        -0.117884        -0.646019
 H         3.051464         0.334593         1.949026
 H         2.069089         2.538588         0.767240
 H         3.709027         2.844873        -0.254909
