19
Iteration:  4438charge 0 multiplicity 1
 C         0.779647         2.842680        -1.849887
 C         1.971315         1.956014        -1.262082
 C         3.073764         1.507920        -2.257786
 C         3.200890         0.238744        -1.353778
 O         3.978747        -0.957343        -1.462040
 C         1.777233         0.423958        -0.916102
 C         2.890841         0.673289         0.066203
 O         3.424958        -0.069056         1.097239
 C         2.784833         2.243898         0.035407
 H         0.180192         3.064018        -0.961293
 H         1.059768         3.888026        -2.131590
 H         0.274339         2.298310        -2.657885
 H         2.741492         1.002221        -3.169274
 H         3.796096         2.313175        -2.618120
 H         3.809145        -1.294734        -2.337915
 H         0.918326        -0.161822        -0.970699
 H         3.442584        -0.999120         0.969234
 H         2.106528         2.718235         0.844294
 H         3.715982         2.886152        -0.040018
