19
Iteration:  3044charge 0 multiplicity 1
 C         0.872914         2.842398        -1.763114
 C         1.943840         1.984358        -1.246915
 C         3.152367         1.471119        -2.224809
 C         3.129423         0.169347        -1.398797
 O         3.709815        -1.040496        -1.762280
 C         1.745055         0.477076        -0.773634
 C         2.967269         0.638000         0.043577
 O         3.543053         0.074513         1.169133
 C         2.769287         2.183367        -0.001785
 H         0.158048         3.195562        -0.906949
 H         1.324232         3.734822        -2.155327
 H         0.474571         2.382716        -2.668985
 H         2.795114         1.280765        -3.328799
 H         3.911269         2.232705        -2.151625
 H         4.671985        -0.942673        -1.712466
 H         0.965692        -0.187144        -0.651088
 H         2.994363        -0.736533         1.410391
 H         2.259954         2.452166         0.993825
 H         3.672450         2.782964        -0.333717
