19
Iteration:  4020charge 0 multiplicity 1
 C         0.881687         2.907346        -1.837631
 C         1.956691         1.956532        -1.249864
 C         3.098080         1.395726        -2.310396
 C         3.109520         0.236875        -1.363541
 O         3.767154        -1.038803        -1.650050
 C         1.797920         0.434073        -0.824002
 C         3.025843         0.749777         0.067312
 O         3.470525        -0.038196         1.143402
 C         2.677846         2.189746         0.003027
 H         0.137004         3.125582        -1.094805
 H         1.203488         3.934194        -2.001227
 H         0.445256         2.479375        -2.733709
 H         2.697512         1.084994        -3.329991
 H         3.953408         2.066934        -2.280978
 H         4.649121        -0.942692        -1.286634
 H         1.002432        -0.319645        -0.510648
 H         4.399716        -0.208917         1.209735
 H         1.929331         2.447465         0.848717
 H         3.439602         3.046093         0.084627
