19
Iteration:  2409
 C         0.910008         2.910705        -1.801754
 C         1.931848         1.899942        -1.290286
 C         3.062620         1.429631        -2.289744
 C         3.153936         0.278693        -1.324030
 O         3.723345        -0.997102        -1.683925
 C         1.707382         0.441116        -0.770494
 C         2.918573         0.741104         0.169245
 O         3.668649        -0.148235         1.019947
 C         2.745081         2.277322         0.032501
 H         0.361467         3.264419        -0.926832
 H         1.335655         3.740427        -2.352279
 H         0.129719         2.506671        -2.536513
 H         2.865178         1.042195        -3.271282
 H         4.041939         2.064942        -2.373168
 H         4.575528        -0.990308        -1.227866
 H         0.881972        -0.260877        -1.026470
 H         3.043014        -0.204217         1.735903
 H         1.966691         2.570071         0.700267
 H         3.613951         2.772680        -0.185511
