19
Iteration:  4526
 C         0.941847         2.824106        -1.782228
 C         1.949501         1.887095        -1.269456
 C         3.057082         1.507979        -2.264331
 C         3.180306         0.251713        -1.455688
 O         3.894560        -0.927278        -1.649312
 C         1.802979         0.419951        -0.886718
 C         3.022690         0.650141         0.050038
 O         3.349378        -0.000440         1.207853
 C         2.679995         2.177830        -0.021296
 H         0.114567         2.785022        -1.052043
 H         1.272679         3.868468        -1.947389
 H         0.406733         2.530588        -2.688144
 H         2.868990         1.297585        -3.352750
 H         3.861913         2.366251        -2.167111
 H         3.498612        -1.493929        -1.001942
 H         0.995075        -0.353900        -0.623932
 H         4.260165        -0.287429         1.214441
 H         1.935717         2.470634         0.823678
 H         3.508618         2.962967         0.030894
