19
Iteration:   625charge 0 multiplicity 1
 C         0.883157         2.880078        -1.813608
 C         1.948628         1.912028        -1.227329
 C         3.110314         1.407851        -2.192291
 C         3.102575         0.162456        -1.433270
 O         3.821428        -1.041631        -1.732034
 C         1.730064         0.481777        -0.780903
 C         2.981312         0.703972         0.022658
 O         3.627176         0.010702         1.035265
 C         2.616530         2.239024         0.096318
 H         0.068743         2.963346        -1.060984
 H         1.571404         3.808641        -1.983252
 H         0.564851         2.476207        -2.777540
 H         2.813802         1.183151        -3.215389
 H         3.813491         2.265341        -2.414706
 H         4.662496        -1.228352        -1.192555
 H         0.791380         0.037693        -0.345794
 H         3.078459        -0.103836         1.844321
 H         1.825120         2.554777         0.813632
 H         3.404435         3.012840         0.030836
