19
Iteration:  4773
 C         0.950498         2.915210        -1.758950
 C         1.917702         1.912614        -1.261961
 C         3.030219         1.461421        -2.220001
 C         3.181318         0.135251        -1.398314
 O         3.976387        -0.918152        -1.568653
 C         1.747614         0.342274        -0.796637
 C         2.911720         0.715807         0.030192
 O         3.506583        -0.038944         1.010868
 C         2.697611         2.308158         0.006048
 H         0.211312         3.307187        -1.044101
 H         1.494614         3.759409        -2.209608
 H         0.346119         2.431021        -2.570695
 H         2.592181         1.147195        -3.189895
 H         3.886442         2.163080        -2.294266
 H         3.467842        -1.754275        -1.560137
 H         0.855231        -0.216121        -0.618903
 H         2.938671        -0.747475         1.349340
 H         1.979873         2.626237         0.736315
 H         3.512539         3.039301        -0.257220
