19
Iteration:   525charge 0 multiplicity 1
 C         0.808543         2.889122        -1.670644
 C         1.942803         1.930561        -1.282475
 C         2.970053         1.446870        -2.269436
 C         3.163070         0.231283        -1.432980
 O         3.943423        -0.968691        -1.564476
 C         1.691268         0.422629        -0.847322
 C         2.974699         0.753008         0.010478
 O         3.495622        -0.106699         1.041305
 C         2.859605         2.212179        -0.071735
 H         0.220670         3.033819        -0.774696
 H         1.258913         3.834154        -2.099556
 H         0.212190         2.419405        -2.462797
 H         2.481306         1.153154        -3.196668
 H         3.926742         2.063788        -2.385644
 H         4.451431        -0.943297        -0.706980
 H         0.874432        -0.131612        -0.781976
 H         2.731905        -0.353698         1.624411
 H         2.343620         2.617297         0.786370
 H         3.798329         2.809235        -0.250979
