19
Iteration:  2843
 C         0.868744         2.905373        -1.616416
 C         2.017561         1.909451        -1.320253
 C         3.055383         1.355201        -2.341841
 C         3.195818         0.231128        -1.350822
 O         3.737748        -1.052072        -1.744584
 C         1.766184         0.507969        -0.839238
 C         2.996740         0.767896         0.109299
 O         3.469966        -0.034137         1.218758
 C         2.785016         2.247642        -0.070735
 H         0.144750         2.936868        -0.811732
 H         1.212147         3.988886        -1.870176
 H         0.250164         2.406859        -2.415623
 H         2.511435         1.070932        -3.343672
 H         3.881277         2.018468        -2.529358
 H         4.740432        -1.032407        -1.678165
 H         0.934211        -0.139432        -0.703291
 H         3.009758        -0.862070         1.081006
 H         2.187712         2.946528         0.546578
 H         3.817896         2.874515        -0.079989
