19
Iteration:  4867
 C         0.802138         2.748072        -1.680662
 C         2.025059         1.925416        -1.351195
 C         3.236219         1.417617        -2.370520
 C         3.176951         0.246711        -1.393375
 O         3.723410        -0.978308        -1.729965
 C         1.791423         0.487940        -0.853906
 C         2.994571         0.720477         0.127924
 O         3.449516        -0.051077         1.215620
 C         2.752301         2.247769         0.033558
 H         0.000225         2.682892        -0.868434
 H         0.860996         3.815445        -1.998108
 H         0.332795         2.200882        -2.541901
 H         2.793905         0.919999        -3.299191
 H         4.134157         2.109452        -2.466080
 H         4.707189        -0.776344        -1.870314
 H         0.819935        -0.013216        -0.888384
 H         2.950157         0.487458         1.911236
 H         2.022316         2.486577         0.844530
 H         3.509541         2.950949        -0.116868
