19
Iteration:  1024charge 0 multiplicity 1
 C         0.865974         2.820890        -1.708751
 C         1.940702         1.917586        -1.271727
 C         3.078234         1.278510        -2.322312
 C         3.216492         0.251938        -1.343695
 O         3.829114        -0.899333        -1.806796
 C         1.807933         0.429419        -0.848202
 C         2.979411         0.758324         0.063423
 O         3.461495        -0.010340         1.203972
 C         2.791809         2.337689        -0.003149
 H         0.144552         2.896116        -0.871686
 H         0.966046         3.832620        -1.990719
 H         0.217865         2.291680        -2.481134
 H         2.628707         0.734869        -3.153045
 H         3.964697         1.762432        -2.651883
 H         4.010744        -1.579704        -1.208724
 H         1.049221        -0.314054        -0.740373
 H         2.783381        -0.211531         1.840270
 H         1.968617         2.530408         0.734747
 H         3.698395         3.016805        -0.007123
