19
Iteration:  3489
 C         0.863372         2.860550        -1.698489
 C         1.927220         1.860561        -1.323595
 C         3.123802         1.463824        -2.370166
 C         3.158947         0.232270        -1.346447
 O         3.819679        -0.915010        -1.706114
 C         1.817495         0.410193        -0.787487
 C         2.913343         0.741687         0.175453
 O         3.359925        -0.144365         1.128593
 C         2.813070         2.244862        -0.074305
 H         0.316882         3.207882        -0.781950
 H         1.273061         3.720834        -2.277451
 H         0.267516         2.220151        -2.407671
 H         2.718609         1.224280        -3.401993
 H         4.103446         2.093165        -2.518695
 H         4.276334        -1.214621        -0.887905
 H         0.808719         0.088460        -0.744540
 H         4.268471         0.138655         1.436865
 H         2.285535         2.708212         0.901686
 H         3.630052         2.915461        -0.361415
