19
Iteration:  2272charge 0 multiplicity 1
 C         0.895457         2.875914        -1.765845
 C         1.957240         1.916305        -1.275542
 C         3.100913         1.462951        -2.304664
 C         3.148426         0.275431        -1.387604
 O         3.653432        -0.989195        -1.630736
 C         1.764889         0.414665        -0.869208
 C         2.930431         0.713542         0.143370
 O         3.657687        -0.097810         1.069767
 C         2.717555         2.214163         0.056539
 H         0.168739         2.849997        -0.945973
 H         1.323950         3.920361        -1.909657
 H         0.688933         2.695372        -2.764161
 H         2.689482         1.184280        -3.332484
 H         3.868522         2.182544        -2.578376
 H         4.605639        -1.191670        -1.383063
 H         1.016275        -0.418928        -1.145827
 H         3.169511         0.115348         1.923332
 H         1.998555         2.636487         0.714844
 H         3.550878         2.863942        -0.147571
