19
Iteration:  2610
 C         0.896721         2.915569        -1.786722
 C         1.963226         1.936412        -1.275061
 C         3.015487         1.382566        -2.267304
 C         3.182889         0.183576        -1.344853
 O         3.701156        -1.005743        -1.742741
 C         1.785408         0.470161        -0.803474
 C         3.028759         0.721021         0.055495
 O         3.583293        -0.024513         1.073986
 C         2.754628         2.183990         0.029348
 H         0.071596         3.091687        -1.010094
 H         1.301851         3.962850        -1.821964
 H         0.340181         2.678489        -2.708936
 H         2.588481         0.992314        -3.254383
 H         3.957156         2.068770        -2.330167
 H         4.242724        -1.390384        -0.996335
 H         0.843681        -0.069286        -0.599147
 H         3.064742        -0.073218         1.909238
 H         2.297085         2.600094         0.905290
 H         3.459280         3.025039        -0.075251
