19
Iteration:   397
 C         0.796003         2.854574        -1.669878
 C         1.969435         1.889530        -1.328473
 C         3.078753         1.526606        -2.316566
 C         3.203148         0.188430        -1.446881
 O         3.771884        -1.078331        -1.595137
 C         1.820393         0.408099        -0.814690
 C         3.027737         0.801020         0.009934
 O         3.461333        -0.013229         1.060952
 C         2.788212         2.257031         0.027615
 H         0.190922         2.969824        -0.766361
 H         1.160275         3.854409        -1.924571
 H         0.209737         2.396340        -2.440034
 H         2.700090         1.337512        -3.297409
 H         3.873621         2.153272        -2.401399
 H         4.700375        -1.014580        -1.485327
 H         1.052855        -0.178731        -0.615130
 H         2.756437        -0.492389         1.478393
 H         2.013263         2.428758         0.818444
 H         3.648434         2.832160         0.259732
