19
Iteration:   569
 C         0.809044         2.796008        -1.705695
 C         1.992595         1.991001        -1.304954
 C         3.059394         1.394485        -2.327590
 C         3.206587         0.177935        -1.316807
 O         3.836148        -0.915757        -1.717811
 C         1.778774         0.441737        -0.842831
 C         2.979136         0.739658         0.093009
 O         3.514169        -0.118223         1.100887
 C         2.776997         2.312281         0.003439
 H         0.137293         2.905193        -0.835041
 H         1.141139         3.850866        -2.069581
 H         0.272786         2.323283        -2.549529
 H         2.498586         1.004375        -3.145619
 H         3.825806         2.140589        -2.614323
 H         3.881265        -1.522285        -0.967403
 H         1.023462        -0.144647        -1.034220
 H         2.946714        -0.057532         1.916714
 H         2.061160         2.706888         0.706150
 H         3.626041         3.026040        -0.106046
