19
Iteration:  4452
 C         0.826046         2.856182        -1.831094
 C         1.906118         1.981070        -1.300570
 C         3.055777         1.538261        -2.293823
 C         3.220874         0.260948        -1.412543
 O         3.910571        -0.956764        -1.426290
 C         1.750946         0.382300        -0.876993
 C         2.982133         0.722896         0.051459
 O         3.449344        -0.036593         1.130722
 C         2.756804         2.146784         0.074166
 H        -0.218776         2.954043        -1.404152
 H         1.374922         3.648425        -2.321158
 H         0.418876         2.350467        -2.717242
 H         2.562827         1.592922        -3.219027
 H         3.989787         2.101907        -2.339575
 H         4.056657        -1.281020        -2.346214
 H         0.906551        -0.407717        -0.800876
 H         3.453535        -0.942983         0.659538
 H         2.284151         2.438599         0.961764
 H         3.670601         2.712240        -0.033104
