19
Iteration:   744charge 0 multiplicity 1
 C         0.816931         2.890600        -1.850745
 C         1.914806         1.941356        -1.178750
 C         3.003478         1.470872        -2.300715
 C         3.144451         0.228858        -1.403403
 O         3.843416        -0.982880        -1.728285
 C         1.806085         0.345677        -0.857936
 C         3.029952         0.680215         0.081188
 O         3.513822        -0.038568         1.152140
 C         2.820154         2.241267         0.067515
 H        -0.073972         3.151318        -1.209642
 H         1.433173         3.867613        -2.025524
 H         0.539153         2.273427        -2.717978
 H         2.567162         1.175959        -3.282371
 H         3.781981         2.237082        -2.544790
 H         4.032735        -1.312615        -0.818413
 H         0.954196        -0.439012        -0.682598
 H         2.958321         0.212012         1.895935
 H         2.229142         2.680614         0.859926
 H         3.676952         2.834016        -0.327204
