19
Iteration:  4336charge 0 multiplicity 1
 C         0.893895         2.806890        -1.840604
 C         2.023034         1.896215        -1.295851
 C         3.089891         1.443721        -2.238948
 C         3.262808         0.235286        -1.353693
 O         3.885936        -0.963367        -1.648020
 C         1.669170         0.471175        -0.786212
 C         2.905588         0.686220         0.086576
 O         3.497912        -0.066709         1.085654
 C         2.685662         2.239035         0.089435
 H         0.021188         2.725913        -1.231945
 H         1.404826         3.733920        -2.034481
 H         0.514242         2.491920        -2.847797
 H         2.740533         1.249808        -3.277083
 H         4.107634         1.854096        -2.349813
 H         3.723084        -1.032160        -2.640957
 H         0.637483        -0.005017        -0.745474
 H         3.340200         0.469160         1.924270
 H         1.845771         2.433822         0.854190
 H         3.410719         3.137827         0.043776
