19
Iteration:   889
 C         0.867355         2.813482        -1.768832
 C         1.944804         1.919019        -1.264096
 C         3.013058         1.333558        -2.357786
 C         3.122834         0.151645        -1.371861
 O         3.938856        -0.846310        -1.750218
 C         1.699260         0.456060        -0.803505
 C         2.957237         0.735679         0.130704
 O         3.488109        -0.057893         1.156924
 C         2.829103         2.246305         0.001003
 H         0.186524         3.141289        -0.937543
 H         1.430484         3.799739        -1.977232
 H         0.372007         2.388293        -2.657820
 H         2.601572         1.157114        -3.336083
 H         3.934582         1.951126        -2.305148
 H         3.809102        -1.575270        -1.169077
 H         0.849438        -0.151841        -0.791099
 H         3.102487         0.208514         2.040678
 H         2.167783         2.696438         0.764516
 H         3.755949         2.909092        -0.312629
