19
Iteration:  3200
 C         0.864368         2.853573        -1.726247
 C         1.892980         1.908775        -1.323006
 C         3.113024         1.445042        -2.264206
 C         3.234484         0.189521        -1.372854
 O         3.710974        -0.970136        -1.700219
 C         1.784696         0.483056        -0.802415
 C         3.042893         0.742026         0.085133
 O         3.539878        -0.063045         1.076928
 C         2.722714         2.240558         0.032169
 H         0.134209         3.326079        -1.035361
 H         1.538569         3.644279        -2.182521
 H         0.335095         2.512249        -2.639838
 H         2.769097         1.096471        -3.281177
 H         3.906239         2.165652        -2.252348
 H         4.233423        -1.279687        -0.890165
 H         0.970403        -0.249790        -0.818890
 H         2.908430        -0.696359         1.456916
 H         2.086772         2.611881         0.887782
 H         3.483691         2.976740        -0.199753
