19
Iteration:  1156
 C         0.783328         2.733106        -1.734465
 C         2.025122         1.953957        -1.324419
 C         3.091896         1.475095        -2.265024
 C         3.155157         0.192303        -1.471604
 O         3.717735        -0.960939        -1.781182
 C         1.774928         0.432801        -0.839136
 C         2.993561         0.649776         0.109997
 O         3.505561         0.128315         1.305818
 C         2.800447         2.209241        -0.015182
 H        -0.004997         2.707227        -0.945041
 H         1.200809         3.722055        -1.866522
 H         0.385462         2.406753        -2.703121
 H         2.905516         1.100557        -3.313700
 H         4.065287         2.033307        -2.383489
 H         4.457822        -1.127103        -1.155588
 H         0.896197        -0.333814        -0.834594
 H         3.262015        -0.783758         1.468735
 H         2.320476         2.888656         0.721552
 H         3.680803         2.887251        -0.284932
