19
Iteration:   239
 C         0.836998         2.869384        -1.750001
 C         1.969419         1.922385        -1.249663
 C         3.020952         1.440378        -2.268924
 C         3.124130         0.178824        -1.446948
 O         3.822218        -1.020648        -1.683079
 C         1.792473         0.432439        -0.858280
 C         3.011797         0.751367         0.042347
 O         3.547471        -0.030884         1.104181
 C         2.748088         2.273651         0.059193
 H         0.070055         3.038744        -1.001186
 H         1.201704         3.866006        -1.935661
 H         0.291236         2.527667        -2.638755
 H         2.611972         1.337086        -3.241421
 H         3.984065         1.895969        -2.430808
 H         4.350007        -1.173252        -0.827447
 H         0.968050        -0.297010        -0.688581
 H         2.985271        -0.648962         1.530289
 H         2.195278         2.789057         0.882854
 H         3.624883         2.993469        -0.107571
