19
Iteration:  4884charge 0 multiplicity 1
 C         0.779237         2.732303        -1.744324
 C         2.079064         1.947063        -1.290215
 C         3.033049         1.442988        -2.332375
 C         3.259766         0.258124        -1.378406
 O         3.745836        -0.995268        -1.719057
 C         1.848143         0.438951        -0.910389
 C         2.951554         0.739008         0.112791
 O         3.443700         0.016116         1.143603
 C         2.782274         2.243060         0.071071
 H         0.235371         2.959969        -0.858851
 H         1.162765         3.749328        -2.006598
 H         0.336545         2.289543        -2.630715
 H         2.475135         1.267534        -3.249574
 H         3.952577         1.950700        -2.606385
 H         4.533347        -1.173748        -1.150783
 H         1.119348        -0.434561        -0.899032
 H         2.740835        -0.120102         1.829139
 H         2.088356         2.652272         0.819629
 H         3.766338         2.836502         0.235127
