19
Iteration:  4598
 C         0.885809         2.854861        -1.729075
 C         2.006941         1.916046        -1.338442
 C         3.048728         1.448569        -2.253999
 C         3.153941         0.239282        -1.412014
 O         3.911586        -0.920850        -1.599982
 C         1.746124         0.376948        -0.863188
 C         2.880702         0.749033         0.019769
 O         3.448479        -0.100955         1.040331
 C         2.792553         2.211582         0.080961
 H         0.110349         3.197409        -0.989379
 H         1.201679         3.755819        -2.314446
 H         0.292283         2.313138        -2.552414
 H         2.723819         1.243377        -3.297637
 H         3.905856         2.179676        -2.369901
 H         4.215351        -1.142545        -0.722418
 H         0.883358        -0.336990        -0.864425
 H         2.938582         0.139516         1.802155
 H         2.305222         2.668520         0.900446
 H         3.728404         2.698260        -0.073214
