19
Iteration:  1749charge 0 multiplicity 1
 C         0.873371         2.870087        -1.778416
 C         1.930551         1.945244        -1.297365
 C         3.148069         1.424721        -2.304531
 C         3.242334         0.308208        -1.309917
 O         3.603071        -0.958219        -1.643244
 C         1.776335         0.435302        -0.918211
 C         2.939701         0.681548         0.181094
 O         3.665203        -0.106661         1.049070
 C         2.702001         2.225488         0.029317
 H         0.027284         2.850918        -1.086230
 H         1.197395         3.878530        -2.024185
 H         0.383371         2.344021        -2.599289
 H         2.697083         1.320595        -3.298851
 H         4.013332         2.120762        -2.527321
 H         4.443909        -1.228343        -1.248903
 H         1.007184        -0.447240        -0.967220
 H         3.332414         0.078206         1.971059
 H         2.003006         2.443337         0.780802
 H         3.494371         2.915683        -0.100415
