19
Iteration:  1776charge 0 multiplicity 1
 C         0.854410         2.848090        -1.742350
 C         1.966696         1.965043        -1.292895
 C         3.140318         1.490227        -2.306274
 C         3.139884         0.202082        -1.462012
 O         3.682892        -1.095447        -1.609650
 C         1.707736         0.482742        -0.950924
 C         2.986308         0.705639         0.041181
 O         3.641120         0.043201         1.026421
 C         2.769461         2.154548         0.198288
 H        -0.079496         2.557126        -1.155311
 H         1.155609         3.913126        -1.939673
 H         0.544889         2.360097        -2.720651
 H         2.774789         1.545362        -3.350771
 H         4.078952         2.140528        -2.235609
 H         4.297740        -1.273316        -0.873233
 H         0.802793         0.005579        -0.820501
 H         3.143703         0.253719         1.870955
 H         1.883056         2.218050         0.949469
 H         3.679186         2.858836         0.394711
