19
Iteration:  3249
 C         0.890624         2.820770        -1.765534
 C         1.945615         1.910267        -1.194637
 C         3.132310         1.465695        -2.280572
 C         3.223428         0.246728        -1.480736
 O         3.768297        -0.978801        -1.604946
 C         1.651877         0.477917        -0.792891
 C         2.970054         0.677365        -0.011126
 O         3.510599        -0.082784         1.008102
 C         2.772062         2.204720         0.036291
 H         0.072457         2.944674        -1.015938
 H         1.231065         3.858665        -1.927657
 H         0.508899         2.464050        -2.759034
 H         2.559715         1.290143        -3.160903
 H         4.074177         2.071986        -2.408253
 H         4.199192        -0.997091        -0.752715
 H         0.671113        -0.130137        -0.681683
 H         3.535177         0.391258         1.853270
 H         2.126242         2.568841         0.891866
 H         3.767199         2.800100        -0.010654
