19
Iteration:  2378
 C         0.843663         2.874665        -1.758921
 C         1.970374         1.978512        -1.284552
 C         3.076626         1.505525        -2.371822
 C         3.156011         0.209856        -1.446482
 O         3.832056        -1.059100        -1.628268
 C         1.756378         0.457566        -0.758733
 C         2.971680         0.751410        -0.029057
 O         3.517815        -0.108669         1.023931
 C         2.802889         2.206422         0.093674
 H         0.290593         3.269260        -0.875635
 H         1.165537         3.723038        -2.293040
 H         0.043200         2.200070        -2.094223
 H         2.657467         1.266829        -3.325662
 H         4.035166         2.105384        -2.259721
 H         4.005216        -1.379115        -0.686662
 H         0.840104        -0.078199        -0.411614
 H         3.036433         0.166350         1.858383
 H         2.005724         2.542833         0.899547
 H         3.638698         2.980750         0.130538
