19
Iteration:  1194charge 0 multiplicity 1
 C         0.835299         2.816164        -1.634945
 C         1.959674         1.912971        -1.317183
 C         3.034102         1.418608        -2.400399
 C         3.219424         0.198694        -1.413091
 O         3.847569        -1.048919        -1.633440
 C         1.880531         0.441889        -0.812222
 C         3.048108         0.760395         0.004895
 O         3.327250         0.043712         1.224508
 C         2.758472         2.301089        -0.012569
 H         0.201137         3.059930        -0.789538
 H         1.224587         3.779655        -2.075388
 H         0.169332         2.424606        -2.437746
 H         2.355304         1.083405        -3.186432
 H         3.743478         2.144645        -2.670117
 H         4.684077        -0.930199        -2.057206
 H         1.153428        -0.209972        -0.538152
 H         3.269921        -0.908745         1.094678
 H         2.058750         2.515016         0.886430
 H         3.754157         2.856969        -0.033423
