19
Iteration:  2003
 C         0.835930         2.978063        -1.610207
 C         1.973114         1.976972        -1.285915
 C         2.945636         1.413752        -2.344586
 C         3.159586         0.135943        -1.438095
 O         3.962044        -1.023741        -1.621180
 C         1.759926         0.428839        -0.926195
 C         3.001019         0.663351        -0.031225
 O         3.464668         0.002953         1.086002
 C         2.768022         2.188872         0.024932
 H         0.327919         3.267118        -0.654355
 H         1.455674         3.867941        -1.848848
 H         0.081956         2.522633        -2.374603
 H         2.552192         1.213141        -3.323527
 H         3.860758         2.056542        -2.483453
 H         4.315379        -1.505874        -0.803651
 H         0.889295        -0.208375        -0.672776
 H         2.849958         0.187949         1.772623
 H         2.104958         2.417179         0.936009
 H         3.661671         3.007210        -0.043163
