19
Iteration:   306
 C         0.813664         2.946345        -1.800413
 C         1.865356         1.897449        -1.328149
 C         3.084157         1.469327        -2.182448
 C         3.187072         0.217574        -1.384524
 O         3.852314        -1.022266        -1.655601
 C         1.798474         0.419190        -0.690278
 C         2.978876         0.744723         0.034001
 O         3.533606        -0.124341         0.933258
 C         2.730117         2.200716         0.005932
 H         0.174547         3.129358        -0.971156
 H         1.289944         3.905883        -1.993374
 H         0.197773         2.654323        -2.652362
 H         2.818557         1.430820        -3.203394
 H         3.815673         2.230618        -2.214854
 H         4.152704        -1.333740        -0.809599
 H         1.136211        -0.542477        -0.301449
 H         3.288422         0.297908         1.812446
 H         2.161556         2.777914         0.827189
 H         3.539308         2.966840        -0.180953
