19
Iteration:  3516charge 0 multiplicity 1
 C         0.822178         2.813296        -1.794304
 C         2.008193         2.044193        -1.314483
 C         3.105411         1.451328        -2.264226
 C         3.114431         0.191364        -1.343694
 O         3.793315        -0.991733        -1.720972
 C         1.760926         0.505531        -0.837403
 C         2.973652         0.696566         0.056735
 O         3.427180        -0.082674         1.084583
 C         2.830384         2.203727         0.081226
 H         0.133551         2.888052        -0.919328
 H         0.972311         3.787855        -2.269942
 H         0.452350         2.003676        -2.405868
 H         2.742426         1.200251        -3.258678
 H         4.034910         1.919005        -2.482753
 H         4.160210        -1.304759        -0.861451
 H         0.877057        -0.177951        -0.667799
 H         3.978439         0.526463         1.627411
 H         2.315887         2.452226         0.972721
 H         3.657116         2.949292         0.051146
