19
Iteration:  4637charge 0 multiplicity 1
 C         0.931817         2.938472        -1.807817
 C         1.935814         1.902725        -1.427798
 C         3.092646         1.495274        -2.363122
 C         3.099251         0.226824        -1.348760
 O         3.809113        -0.944053        -1.582008
 C         1.701844         0.344708        -0.823572
 C         3.034045         0.725784         0.108246
 O         3.634858        -0.077919         1.101403
 C         2.603463         2.221575         0.068046
 H         0.188169         3.039856        -1.001295
 H         1.601871         3.763601        -1.965687
 H         0.357393         2.696702        -2.676797
 H         2.732933         1.206586        -3.318068
 H         4.055170         2.001624        -2.301310
 H         4.478215        -1.018512        -0.826465
 H         0.818246        -0.187441        -0.872141
 H         3.008958        -0.797263         1.377974
 H         1.672441         2.314542         0.727263
 H         3.440936         2.995558         0.297717
