19
Iteration:  3573
 C         0.864052         2.959203        -1.767877
 C         1.899013         1.920130        -1.371448
 C         3.068708         1.398189        -2.289908
 C         3.148515         0.224324        -1.345562
 O         3.843981        -0.974561        -1.668003
 C         1.740900         0.454433        -0.807917
 C         2.905233         0.678104         0.095157
 O         3.518974        -0.089923         1.119168
 C         2.718750         2.247978         0.040219
 H         0.076321         3.038453        -1.085945
 H         1.526211         3.846897        -1.790353
 H         0.459675         2.901976        -2.762115
 H         2.725363         0.835976        -3.135639
 H         3.997725         1.825981        -2.473823
 H         4.309883        -1.339233        -0.927825
 H         1.003950        -0.324491        -0.722036
 H         4.420796         0.163075         0.904001
 H         2.112801         2.537124         0.806205
 H         3.647590         2.882588        -0.045152
