19
Iteration:  4609charge 0 multiplicity 1
 C         0.854920         2.908204        -1.799588
 C         1.915763         2.000023        -1.253569
 C         3.084109         1.520724        -2.256285
 C         3.177433         0.201357        -1.347265
 O         3.927089        -1.002504        -1.575901
 C         1.703269         0.296076        -0.897617
 C         2.937660         0.692918         0.023411
 O         3.485831        -0.013632         0.979036
 C         2.786666         2.238237         0.050218
 H         0.235347         3.232714        -0.920616
 H         1.389613         3.824731        -2.164449
 H         0.218867         2.396827        -2.605250
 H         2.550116         1.262581        -3.202113
 H         4.056111         2.088384        -2.377695
 H         4.169952        -1.407335        -0.689802
 H         0.856631        -0.435978        -0.695808
 H         2.824639        -0.305280         1.619528
 H         2.140754         2.430738         0.866101
 H         3.678999         2.809301         0.097342
