19
Iteration:  2729charge 0 multiplicity 1
 C         0.901742         2.969840        -1.896291
 C         1.942382         2.000414        -1.212980
 C         2.990567         1.437876        -2.320165
 C         3.095543         0.174883        -1.394470
 O         3.819871        -0.981688        -1.711332
 C         1.739541         0.377697        -0.770128
 C         3.003682         0.645695         0.094568
 O         3.638445        -0.027900         1.069769
 C         2.792527         2.160301         0.131026
 H         0.127794         3.451405        -1.190818
 H         1.496985         3.785208        -2.356950
 H         0.265276         2.521566        -2.685118
 H         2.460653         1.060482        -3.146659
 H         3.789411         2.202868        -2.529540
 H         3.436600        -1.674005        -1.137992
 H         0.978974        -0.280270        -0.544084
 H         3.122659         0.104333         1.874646
 H         2.106885         2.630139         0.837652
 H         3.541757         3.073386         0.177957
