19
Iteration:  4784charge 0 multiplicity 1
 C         0.910192         2.982125        -1.807965
 C         1.908379         1.910336        -1.268605
 C         3.058278         1.360172        -2.292668
 C         3.139604         0.280708        -1.361684
 O         3.994078        -0.949023        -1.591884
 C         1.729681         0.394281        -0.793577
 C         2.868653         0.765840         0.106173
 O         3.601071        -0.084963         1.058724
 C         2.641400         2.236603         0.012477
 H         0.125911         3.263325        -1.117794
 H         1.565186         3.774935        -2.190126
 H         0.440427         2.516546        -2.714454
 H         2.603061         1.042493        -3.243678
 H         4.017908         1.833725        -2.546397
 H         3.509538        -1.661784        -1.966919
 H         0.935602        -0.283081        -0.652711
 H         2.886645        -0.577946         1.415576
 H         2.032290         2.480336         0.863697
 H         3.538401         2.927249         0.176959
