19
Iteration:  2912
 C         0.909872         2.965484        -1.820836
 C         1.938336         1.954391        -1.351695
 C         3.062616         1.409713        -2.313941
 C         3.109334         0.288820        -1.374444
 O         3.644364        -1.042927        -1.609368
 C         1.815811         0.443707        -0.726871
 C         3.049720         0.735822         0.107861
 O         3.600816        -0.111298         1.113860
 C         2.690483         2.226038         0.098378
 H         0.131082         3.217901        -1.034414
 H         1.441409         3.855065        -2.082541
 H         0.286541         2.529854        -2.655259
 H         2.938250         1.049563        -3.396537
 H         4.056071         1.860641        -2.476931
 H         4.523403        -0.961867        -2.049260
 H         0.905798        -0.266626        -0.676512
 H         3.878537        -0.897164         0.629902
 H         1.775945         2.614141         0.736213
 H         3.460145         3.103854         0.142248
