19
Iteration:  4482
 C         0.913601         2.812588        -1.846486
 C         1.974916         1.931077        -1.349915
 C         3.132654         1.456151        -2.192755
 C         3.154028         0.223337        -1.330492
 O         3.905740        -0.938256        -1.595104
 C         1.706121         0.403311        -0.852740
 C         2.928486         0.756195         0.116184
 O         3.511868        -0.034764         1.113280
 C         2.601761         2.195994         0.066600
 H         0.089698         2.932597        -1.107819
 H         1.393487         3.823930        -2.028705
 H         0.580755         2.440486        -2.818562
 H         2.663795         1.380582        -3.225151
 H         4.158027         2.009892        -2.359388
 H         3.533144        -1.383966        -2.349897
 H         0.752741        -0.156830        -0.754388
 H         4.263781        -0.401876         0.661424
 H         1.801906         2.496937         0.839830
 H         3.384269         3.010537         0.158337
