19
Iteration:  2335charge 0 multiplicity 1
 C         0.883804         2.862769        -1.675234
 C         2.019654         1.893598        -1.362566
 C         3.062362         1.371254        -2.334742
 C         3.206275         0.248977        -1.286399
 O         3.800405        -0.888867        -1.778110
 C         1.736556         0.431658        -0.735144
 C         2.928242         0.727982         0.126957
 O         3.472970        -0.076023         1.076809
 C         2.813652         2.260069        -0.065205
 H         0.079103         2.991203        -0.885140
 H         1.360782         3.893923        -1.836049
 H         0.199448         2.632902        -2.567788
 H         2.635627         0.938320        -3.268503
 H         3.956776         2.026785        -2.387194
 H         4.035889        -1.395252        -0.928717
 H         0.944848        -0.358355        -0.542987
 H         2.749856        -0.271527         1.753409
 H         2.193609         2.742740         0.793894
 H         3.907458         2.612128        -0.313852
