19
Iteration:  2659charge 0 multiplicity 1
 C         0.807550         2.832879        -1.571260
 C         1.994840         1.930319        -1.252191
 C         3.118525         1.444875        -2.351970
 C         3.184339         0.185220        -1.427624
 O         3.745529        -1.051989        -1.555245
 C         1.700037         0.511040        -0.845735
 C         2.996483         0.715388        -0.063835
 O         3.441029        -0.004324         1.066311
 C         2.961396         2.220017        -0.034626
 H        -0.059653         2.800280        -0.972525
 H         1.081045         3.844407        -1.815005
 H         0.402235         2.451960        -2.535572
 H         2.415370         1.062808        -3.123072
 H         3.995392         2.137825        -2.597618
 H         4.670744        -0.901714        -1.744027
 H         0.744286        -0.132302        -0.668880
 H         2.657759        -0.051012         1.643502
 H         2.314895         2.686643         0.819395
 H         3.877343         2.847646         0.000777
