19
Iteration:   551charge 0 multiplicity 1
 C         0.775197         2.826889        -1.667793
 C         1.992827         1.947088        -1.305448
 C         3.081812         1.368108        -2.371310
 C         3.140248         0.207658        -1.464473
 O         3.947226        -0.960253        -1.652669
 C         1.745694         0.479449        -0.757072
 C         3.004845         0.806090         0.018894
 O         3.420733        -0.095586         1.032546
 C         2.803793         2.243990         0.011593
 H         0.252839         2.868626        -0.721555
 H         1.099306         3.758831        -2.043722
 H         0.143854         2.365267        -2.403217
 H         2.576481         1.275023        -3.388671
 H         4.121619         1.936236        -2.322182
 H         4.133844        -1.269305        -0.759200
 H         0.858437        -0.047063        -0.204941
 H         2.802351        -0.001818         1.799469
 H         2.141895         2.486660         0.941715
 H         3.696045         2.895474         0.053093
