19
Iteration:  2597
 C         0.967450         2.921984        -1.794510
 C         1.923466         1.927665        -1.261220
 C         3.023713         1.439594        -2.211628
 C         3.058267         0.164597        -1.426651
 O         3.780140        -1.001598        -1.734819
 C         1.689611         0.445163        -0.776440
 C         3.026676         0.685285         0.009670
 O         3.635558         0.029685         1.076205
 C         2.783046         2.196765         0.071444
 H         0.135798         3.034834        -0.999854
 H         1.470241         3.823490        -2.168174
 H         0.515311         2.420424        -2.742062
 H         2.518415         1.307791        -3.181359
 H         3.916091         2.135145        -2.359430
 H         3.792231        -1.465071        -0.897082
 H         0.863877        -0.262021        -0.385442
 H         2.942544         0.119876         1.754185
 H         1.990123         2.271425         0.750623
 H         3.784468         2.720240         0.047323
