19
Iteration:  4019charge 0 multiplicity 1
 C         0.874851         2.917000        -1.841418
 C         1.948719         1.946397        -1.254227
 C         3.101060         1.394632        -2.311472
 C         3.111101         0.235087        -1.367867
 O         3.765803        -1.037428        -1.650238
 C         1.805380         0.447133        -0.821103
 C         3.020929         0.740345         0.071565
 O         3.469422        -0.038819         1.140184
 C         2.686490         2.193065         0.013330
 H         0.123303         3.117587        -1.087602
 H         1.198011         3.938870        -2.025601
 H         0.433463         2.474614        -2.744235
 H         2.726811         1.083328        -3.298648
 H         3.941260         2.082619        -2.305239
 H         4.663782        -0.979249        -1.279900
 H         1.054350        -0.327952        -0.478112
 H         4.394409        -0.202329         1.227332
 H         1.933233         2.440859         0.832432
 H         3.415976         3.030422         0.072236
