19
Iteration:   932charge 0 multiplicity 1
 C         0.885617         2.949211        -1.739073
 C         1.902905         1.844362        -1.345851
 C         3.106066         1.417784        -2.316828
 C         3.134429         0.245667        -1.436017
 O         3.765754        -0.992227        -1.550978
 C         1.799569         0.393830        -0.839050
 C         2.998270         0.709024         0.036860
 O         3.642025        -0.052929         1.066056
 C         2.634099         2.238686         0.049078
 H         0.178068         3.349348        -0.967317
 H         1.336472         3.919104        -2.145677
 H         0.259257         2.552576        -2.537567
 H         2.530774         1.081280        -3.215176
 H         4.024090         2.076345        -2.530161
 H         4.566602        -0.936421        -0.975066
 H         0.970469        -0.255908        -0.827445
 H         2.966275        -0.153752         1.796863
 H         1.866773         2.346591         0.850025
 H         3.490350         3.080911         0.014812
