19
Iteration:  2481charge 0 multiplicity 1
 C         0.825535         2.940419        -1.619798
 C         1.987576         1.926780        -1.411540
 C         3.081829         1.346856        -2.385880
 C         3.167558         0.207244        -1.365131
 O         3.722319        -0.959988        -1.709069
 C         1.769504         0.407332        -0.812584
 C         2.962683         0.736130         0.115974
 O         3.518128        -0.041170         1.200029
 C         2.880192         2.309228        -0.020393
 H         0.137310         2.628365        -0.851438
 H         0.937943         4.055985        -1.618986
 H         0.393280         2.773734        -2.550920
 H         2.799984         0.960631        -3.430470
 H         3.838973         2.059573        -2.573516
 H         4.388679        -1.192913        -1.071263
 H         0.865438        -0.331463        -0.857673
 H         3.029317        -0.834554         1.362083
 H         2.079663         2.616512         0.652657
 H         3.825560         2.727024        -0.305002
