19
Iteration:  1049
 C         0.871919         2.874088        -1.687976
 C         1.891645         1.863950        -1.329303
 C         3.041826         1.420348        -2.368365
 C         3.182197         0.191990        -1.455530
 O         3.976330        -0.925236        -1.648658
 C         1.738258         0.438456        -0.761790
 C         2.922342         0.687498        -0.009229
 O         3.465615        -0.024237         1.166477
 C         2.799460         2.212928        -0.033753
 H         0.271486         3.189173        -0.814045
 H         1.125912         3.864458        -2.121291
 H         0.145072         2.471371        -2.365794
 H         2.527762         1.303251        -3.374087
 H         3.867457         2.089302        -2.329432
 H         4.006444        -1.619726        -0.983627
 H         0.835264        -0.078677        -0.554840
 H         3.226184         0.381437         2.024237
 H         2.116847         2.503358         0.773592
 H         3.682936         2.739809        -0.178758
