19
Iteration:   582charge 0 multiplicity 1
 C         0.849104         2.801396        -1.771673
 C         1.941011         1.883175        -1.302838
 C         3.045500         1.443947        -2.294590
 C         3.289255         0.387515        -1.313471
 O         3.765466        -0.952449        -1.754119
 C         1.753339         0.482399        -0.838624
 C         2.930046         0.703258         0.149083
 O         3.578472        -0.067684         1.137039
 C         2.755848         2.185852        -0.020777
 H         0.041322         2.986555        -1.056729
 H         1.222871         3.828221        -2.026272
 H         0.368224         2.361536        -2.622710
 H         2.573427         1.072326        -3.240626
 H         3.994791         2.073366        -2.675400
 H         3.822719        -1.597999        -0.983824
 H         0.994896        -0.264759        -0.849188
 H         3.008371        -0.142668         1.906357
 H         2.217888         2.570551         0.920891
 H         3.728856         2.715489        -0.170704
