19
Iteration:  2790charge 0 multiplicity 1
 C         0.808618         2.886115        -1.716210
 C         2.010163         1.947318        -1.298925
 C         3.064664         1.472541        -2.313587
 C         3.116041         0.240830        -1.395812
 O         3.755273        -1.057914        -1.631907
 C         1.734572         0.484633        -0.835206
 C         2.954484         0.652673         0.076611
 O         3.586797        -0.077154         1.106874
 C         2.864113         2.273106        -0.004890
 H         0.137173         2.926190        -0.885783
 H         1.137722         3.921545        -1.809304
 H         0.313558         2.561265        -2.659364
 H         2.645984         1.199827        -3.336387
 H         3.888572         2.082527        -2.691985
 H         4.444613        -1.241310        -0.930153
 H         0.824371        -0.066687        -0.990716
 H         2.892112        -0.325057         1.704360
 H         2.125082         2.705612         0.728938
 H         3.730259         2.832849        -0.255323
