19
Iteration:  4683charge 0 multiplicity 1
 C         0.821912         2.875699        -1.846726
 C         1.962391         1.940431        -1.306314
 C         3.107333         1.508852        -2.236101
 C         3.181578         0.220019        -1.470300
 O         3.802879        -1.037631        -1.651559
 C         1.755512         0.445801        -0.869228
 C         2.994842         0.610130         0.070434
 O         3.471720        -0.057778         1.185660
 C         2.778611         2.239575         0.060025
 H        -0.079423         2.729784        -1.187630
 H         1.177397         3.874131        -1.880826
 H         0.469884         2.551709        -2.839341
 H         2.672342         1.297014        -3.178959
 H         3.838358         2.352473        -2.129311
 H         4.780350        -0.761863        -1.618340
 H         0.998234        -0.359081        -0.717432
 H         2.956255         0.310299         1.976638
 H         2.129390         2.421064         0.936373
 H         3.677507         2.942442        -0.112514
