19
Iteration:  4362
 C         0.863889         2.878031        -1.845007
 C         1.989409         1.915691        -1.315237
 C         3.026269         1.439408        -2.293204
 C         3.225920         0.263809        -1.417750
 O         3.890231        -0.877575        -1.599917
 C         1.798663         0.338238        -0.847481
 C         2.955556         0.680830         0.064523
 O         3.398266        -0.102921         1.220081
 C         2.746178         2.208719         0.045260
 H         0.007031         2.764775        -1.161697
 H         1.319106         3.893630        -1.987431
 H         0.504007         2.596376        -2.841779
 H         2.661307         1.410719        -3.260670
 H         4.004736         1.967763        -2.318168
 H         3.398388        -1.303975        -2.383870
 H         1.054075        -0.412337        -0.754223
 H         3.721566         0.629671         1.825778
 H         2.105764         2.494543         0.880055
 H         3.579566         2.872397         0.011902
