19
Iteration:   662
 C         0.839435         2.871285        -1.732217
 C         1.943363         1.949575        -1.275506
 C         3.057245         1.464963        -2.365409
 C         3.203343         0.253862        -1.367285
 O         3.766801        -0.936452        -1.529952
 C         1.758176         0.397955        -0.908475
 C         2.950848         0.675326         0.077020
 O         3.602743        -0.135439         1.074026
 C         2.758777         2.205292        -0.032955
 H         0.067204         3.211925        -1.092937
 H         1.179288         3.787142        -2.029886
 H         0.314345         2.617465        -2.637725
 H         2.393443         1.099774        -3.210536
 H         3.752523         2.329654        -2.527953
 H         4.548261        -0.864605        -0.880132
 H         0.965649        -0.365455        -0.990219
 H         3.015671        -0.007409         1.811844
 H         2.256954         2.665605         0.915690
 H         3.704139         2.775685        -0.188907
