19
Iteration:  2326charge 0 multiplicity 1
 C         0.871578         2.918369        -1.711459
 C         1.941773         1.844568        -1.334615
 C         3.089792         1.374503        -2.288668
 C         3.106396         0.204332        -1.370504
 O         3.834703        -0.947136        -1.795757
 C         1.808662         0.461101        -0.681281
 C         2.937187         0.798564         0.137260
 O         3.457171        -0.089145         1.093384
 C         2.843048         2.234566        -0.078119
 H         0.117730         2.901617        -0.861100
 H         1.374055         3.968746        -1.625096
 H         0.348210         2.717711        -2.648294
 H         2.669101         0.975724        -3.274429
 H         3.907402         2.043251        -2.449096
 H         4.387089        -1.332548        -1.037238
 H         0.989038        -0.265438        -0.684924
 H         2.820880        -0.305440         1.846849
 H         2.153400         2.739747         0.604886
 H         3.623800         3.029702        -0.096397
