19
Iteration:  2119charge 0 multiplicity 1
 C         0.835405         2.927774        -1.741707
 C         1.996543         1.927766        -1.377448
 C         3.106747         1.416473        -2.273448
 C         3.213446         0.234304        -1.331588
 O         3.730620        -0.996395        -1.667625
 C         1.663396         0.431634        -0.902333
 C         2.942682         0.681411         0.142509
 O         3.684410        -0.038839         1.044121
 C         2.716359         2.196859         0.036294
 H         0.029889         2.945690        -0.955885
 H         1.214159         4.023372        -1.585527
 H         0.229087         2.720621        -2.623244
 H         2.606695         1.141882        -3.296439
 H         3.916764         2.205536        -2.376800
 H         4.129360        -1.538934        -0.910909
 H         0.959713        -0.311208        -0.968968
 H         3.172518        -0.194970         1.837476
 H         2.007740         2.832211         0.800128
 H         3.645757         2.867973         0.037334
