19
Iteration:   798charge 0 multiplicity 1
 C         0.804807         2.890443        -1.805254
 C         1.984221         1.924743        -1.309233
 C         3.128046         1.379109        -2.298032
 C         3.146670         0.205441        -1.326865
 O         3.772569        -1.005130        -1.611415
 C         1.745602         0.423446        -0.926898
 C         2.859736         0.715117         0.210314
 O         3.706303        -0.034562         1.007138
 C         2.660702         2.286508         0.053839
 H         0.383186         2.928795        -0.780091
 H         1.364058         3.893751        -1.975007
 H         0.099602         2.646089        -2.608413
 H         2.580095         1.051844        -3.238766
 H         4.139774         1.853460        -2.323040
 H         4.688178        -0.951958        -1.287773
 H         0.827866        -0.226785        -1.243027
 H         3.173876        -0.403495         1.739980
 H         1.884247         2.705397         0.803392
 H         3.482799         3.163525         0.021406
