19
Iteration:  2045charge 0 multiplicity 1
 C         0.846255         2.870415        -1.769330
 C         1.982077         1.927242        -1.337399
 C         3.034163         1.406777        -2.277653
 C         3.116976         0.287194        -1.364914
 O         3.830871        -0.866584        -1.707673
 C         1.706379         0.447892        -0.825896
 C         2.974489         0.736142         0.131866
 O         3.564253        -0.195272         1.116839
 C         2.821272         2.234421        -0.017226
 H         0.386166         3.286778        -0.881462
 H         1.109378         3.722882        -2.383890
 H         0.153471         2.233714        -2.372418
 H         2.624248         0.951941        -3.180004
 H         3.900932         1.977035        -2.495718
 H         4.043896        -1.244550        -0.829429
 H         0.898567        -0.193214        -0.852244
 H         2.824822        -0.351228         1.725208
 H         2.468253         2.781496         0.843056
 H         3.734124         2.831438         0.018373
