19
Iteration:   284
 C         0.823104         2.897863        -1.718635
 C         1.905903         1.952356        -1.295972
 C         3.119776         1.443509        -2.268467
 C         3.120416         0.233942        -1.359491
 O         3.773236        -0.985889        -1.593142
 C         1.761065         0.401139        -0.922687
 C         2.947537         0.716957         0.080965
 O         3.661619        -0.147670         1.025979
 C         2.703027         2.256538        -0.016119
 H         0.118774         3.189166        -0.965783
 H         1.218915         3.839809        -2.113160
 H         0.254892         2.413236        -2.523525
 H         2.861160         1.197926        -3.272202
 H         3.948294         2.096298        -2.428349
 H         4.444481        -1.111023        -0.843366
 H         0.712623        -0.236449        -1.022227
 H         3.515059         0.177905         1.905946
 H         2.121538         2.627786         0.913849
 H         3.518411         3.032505         0.039446
