19
Iteration:  2766charge 0 multiplicity 1
 C         0.901422         2.865208        -1.742675
 C         1.980120         1.942955        -1.308558
 C         3.087465         1.381571        -2.250351
 C         3.062267         0.237200        -1.300176
 O         3.752667        -0.934738        -1.686013
 C         1.755851         0.429541        -0.785117
 C         2.909184         0.731971         0.090820
 O         3.609480        -0.067033         0.945211
 C         2.763926         2.254299         0.029190
 H         0.231033         3.106845        -0.938435
 H         1.400131         3.882812        -2.011729
 H         0.449329         2.464460        -2.646576
 H         3.018883         1.021227        -3.317613
 H         4.009253         1.886195        -2.394785
 H         3.772241        -1.641041        -1.050020
 H         0.886163        -0.295446        -0.545498
 H         3.393661         0.103669         1.902953
 H         2.121824         2.423060         0.916539
 H         3.639525         2.893162        -0.250855
