19
Iteration:  4437
 C         0.785848         2.840277        -1.847367
 C         1.967713         1.959176        -1.259969
 C         3.069799         1.500014        -2.259545
 C         3.207121         0.245053        -1.353248
 O         3.981618        -0.953872        -1.466293
 C         1.774785         0.431759        -0.915268
 C         2.886408         0.669179         0.072563
 O         3.421573        -0.069533         1.096340
 C         2.786711         2.238107         0.031891
 H         0.215943         3.008412        -0.941385
 H         1.069935         3.887361        -2.126703
 H         0.226319         2.303986        -2.643913
 H         2.769817         0.979755        -3.222666
 H         3.829278         2.292907        -2.616664
 H         3.781402        -1.292184        -2.322733
 H         0.921010        -0.144761        -0.970925
 H         3.456392        -1.007275         0.988376
 H         2.080323         2.743635         0.824520
 H         3.703845         2.930092        -0.043787
