19
Iteration:  2180
 C         0.806592         2.998810        -1.706939
 C         1.970248         1.914148        -1.272718
 C         3.042562         1.270805        -2.322214
 C         3.215905         0.239471        -1.284056
 O         3.868886        -0.902447        -1.710358
 C         1.745776         0.439254        -0.745599
 C         2.996286         0.738937         0.038858
 O         3.453977        -0.208827         1.056058
 C         2.796118         2.283111        -0.043912
 H         0.243735         3.244103        -0.802705
 H         1.149473         3.922813        -2.121773
 H         0.279825         2.735321        -2.625724
 H         2.518443         0.981861        -3.173259
 H         3.851980         1.912046        -2.598565
 H         4.461691        -1.047626        -0.920332
 H         0.963664        -0.261991        -0.650995
 H         2.843079        -0.195114         1.769039
 H         2.215152         2.885357         0.644184
 H         3.669029         2.908371        -0.398251
