19
Iteration:  3191charge 0 multiplicity 1
 C         0.919501         2.873730        -1.754309
 C         1.934241         1.836872        -1.265859
 C         3.007365         1.476024        -2.241802
 C         3.218486         0.305627        -1.407161
 O         3.744774        -1.020016        -1.686544
 C         1.770529         0.390760        -0.792891
 C         3.084270         0.719934        -0.013137
 O         3.513094        -0.057711         1.125287
 C         2.740735         2.288044        -0.011839
 H         0.260224         3.251801        -0.972947
 H         1.582874         3.774277        -2.068315
 H         0.243679         2.502805        -2.577314
 H         2.837134         1.223684        -3.259684
 H         3.740119         2.277164        -2.318623
 H         4.140673        -1.301307        -0.802620
 H         0.946133        -0.247892        -0.734196
 H         2.681546        -0.533637         1.279618
 H         1.965731         2.534896         0.849035
 H         3.618521         2.993949         0.042162
