19
Iteration:  4673
 C         0.847835         2.863116        -1.861795
 C         1.922849         1.930088        -1.221707
 C         3.069276         1.520771        -2.275557
 C         3.193828         0.207206        -1.345838
 O         3.822994        -1.064045        -1.640479
 C         1.759827         0.378614        -0.900440
 C         2.926659         0.736615         0.082512
 O         3.529052        -0.041216         1.106870
 C         2.772614         2.196406         0.102819
 H        -0.053980         3.064138        -1.238765
 H         1.210988         3.876388        -1.811711
 H         0.580391         2.695861        -2.927427
 H         2.738518         1.282849        -3.287436
 H         3.947968         2.273350        -2.482074
 H         4.821008        -0.926939        -1.735225
 H         0.804311        -0.211825        -1.105897
 H         2.848335         0.080650         1.846627
 H         2.118454         2.597903         0.884657
 H         3.677295         2.873636         0.057232
