19
Iteration:  4891charge 0 multiplicity 1
 C         0.845734         2.789158        -1.735817
 C         2.028589         1.953021        -1.308325
 C         3.018196         1.492117        -2.333704
 C         3.255723         0.251912        -1.373861
 O         3.784787        -1.026916        -1.699182
 C         1.862220         0.429012        -0.875941
 C         2.937208         0.738286         0.124520
 O         3.457185         0.021232         1.116088
 C         2.783157         2.199019         0.067271
 H         0.027226         2.941888        -0.976795
 H         1.103538         3.728400        -2.171217
 H         0.309582         2.235724        -2.566651
 H         2.388548         1.187861        -3.161581
 H         3.816514         2.222762        -2.536562
 H         4.336154        -1.252395        -0.954662
 H         1.174813        -0.359435        -0.757202
 H         2.684846        -0.282071         1.590092
 H         2.071590         2.554208         0.816160
 H         3.692408         2.813576        -0.107222
