19
Iteration:   815
 C         0.856554         2.847212        -1.709691
 C         1.933291         1.946320        -1.364367
 C         3.099778         1.498312        -2.287425
 C         3.218639         0.242656        -1.367061
 O         3.725814        -0.996597        -1.521234
 C         1.744013         0.444530        -0.863874
 C         2.948310         0.712070         0.018947
 O         3.621193        -0.007278         1.039603
 C         2.703919         2.161970        -0.005507
 H         0.106715         3.037810        -0.932067
 H         1.223785         3.791476        -2.033375
 H         0.435668         2.231110        -2.542765
 H         2.786572         1.135349        -3.282803
 H         3.986856         2.176418        -2.470150
 H         4.651451        -0.984281        -1.140517
 H         0.849516        -0.290369        -0.777346
 H         2.986206        -0.418847         1.635535
 H         1.999842         2.418144         0.776097
 H         3.608224         2.658518         0.036629
