19
Iteration:   418charge 0 multiplicity 1
 C         0.802562         2.801641        -1.725445
 C         2.071932         1.990159        -1.281811
 C         3.068906         1.391044        -2.375479
 C         3.224021         0.279346        -1.354451
 O         3.700275        -0.965559        -1.663954
 C         1.777478         0.484041        -0.910843
 C         2.928839         0.694095         0.106846
 O         3.592309        -0.074935         1.116364
 C         2.735942         2.203593         0.094197
 H         0.090736         2.878623        -0.931764
 H         1.000410         3.834965        -1.985858
 H         0.312406         2.329300        -2.543045
 H         2.582154         1.075431        -3.273379
 H         3.947100         1.943034        -2.627893
 H         4.689252        -0.949440        -1.441779
 H         1.014538        -0.103513        -1.108396
 H         3.065376        -0.152942         1.942633
 H         1.969846         2.684614         0.800168
 H         3.573606         2.905556        -0.087305
