19
Iteration:  1598
 C         0.860242         2.866369        -1.851893
 C         1.911662         1.931726        -1.337580
 C         3.113499         1.519568        -2.293248
 C         3.137264         0.285427        -1.296768
 O         3.644665        -0.895685        -1.657389
 C         1.716024         0.384068        -0.790141
 C         2.945497         0.667213         0.208028
 O         3.667511        -0.156251         1.048236
 C         2.779076         2.159684        -0.004307
 H        -0.066855         2.996482        -1.274014
 H         1.201845         3.906199        -2.059406
 H         0.631775         2.472287        -2.906737
 H         2.670202         1.323809        -3.206941
 H         4.023839         2.053397        -2.460268
 H         4.324297        -1.221758        -1.030751
 H         1.114907        -0.447872        -0.915447
 H         3.996508         0.381722         1.797038
 H         2.130891         2.650594         0.780692
 H         3.651759         2.868249         0.030306
