19
Iteration:  4384charge 0 multiplicity 1
 C         0.821678         2.911519        -1.728198
 C         1.904994         1.900083        -1.287934
 C         3.097688         1.507687        -2.287591
 C         3.241649         0.186235        -1.385643
 O         4.036044        -1.015305        -1.611127
 C         1.793652         0.445719        -0.873603
 C         2.961651         0.723813         0.041559
 O         3.297201        -0.043067         1.189490
 C         2.710280         2.172296        -0.036059
 H        -0.030755         2.903443        -1.039216
 H         1.433853         3.800522        -2.015508
 H         0.407304         2.569965        -2.675559
 H         2.691918         1.309862        -3.233069
 H         3.701358         2.399614        -2.554231
 H         3.315641        -1.516313        -1.939065
 H         1.023982        -0.233884        -0.834077
 H         4.121042         0.315951         1.494931
 H         2.214987         2.483132         0.887406
 H         3.651192         2.656215        -0.030999
