19
Iteration:  4687charge 0 multiplicity 1
 C         0.822837         2.863535        -1.809420
 C         1.957386         1.952008        -1.340007
 C         3.113332         1.511235        -2.214764
 C         3.167169         0.218998        -1.462556
 O         3.795471        -1.002125        -1.666915
 C         1.788619         0.455317        -0.842257
 C         3.017884         0.607984         0.028372
 O         3.439256        -0.063509         1.216572
 C         2.761512         2.212617         0.016442
 H        -0.024531         2.602835        -1.191764
 H         1.185356         3.923667        -1.970384
 H         0.492197         2.465449        -2.816719
 H         2.681299         1.376632        -3.286009
 H         4.006699         2.227453        -2.169184
 H         4.718400        -0.846099        -1.559241
 H         1.018609        -0.338633        -0.586805
 H         3.089663         0.283278         2.018854
 H         2.199027         2.513463         0.897044
 H         3.570006         2.901489        -0.024460
