19
Iteration:  3634
 C         0.800594         2.850134        -1.746301
 C         1.974675         1.955878        -1.347721
 C         3.009979         1.461332        -2.282457
 C         3.229766         0.204981        -1.381482
 O         3.897256        -0.998250        -1.723910
 C         1.854841         0.465456        -0.744833
 C         2.963948         0.772429         0.091579
 O         3.350198        -0.188843         1.179480
 C         2.820742         2.304067        -0.052983
 H         0.206309         3.341700        -0.903069
 H         1.214257         3.783519        -2.147776
 H         0.093185         2.355205        -2.454529
 H         2.730536         0.950036        -3.221058
 H         3.890107         2.070670        -2.682587
 H         3.506721        -1.575888        -1.073613
 H         0.855573         0.040526        -0.565477
 H         4.245929        -0.039479         1.457902
 H         2.042948         2.864793         0.632232
 H         3.641609         2.951569        -0.143708
