19
Iteration:  1653
 C         0.787524         2.940169        -1.646480
 C         1.904749         1.876924        -1.381721
 C         3.065854         1.428762        -2.297339
 C         3.177240         0.204192        -1.430567
 O         3.794614        -0.974695        -1.644401
 C         1.853459         0.412760        -0.808756
 C         3.068118         0.717543         0.045865
 O         3.459011        -0.036444         1.132935
 C         2.810543         2.267706        -0.049638
 H         0.265513         3.075615        -0.657367
 H         1.362099         3.889600        -1.844789
 H        -0.046297         2.646302        -2.408646
 H         2.755191         1.207753        -3.289982
 H         3.994186         1.994146        -2.502092
 H         4.307943        -1.366013        -0.868188
 H         0.963205        -0.237532        -0.550889
 H         2.771993        -0.778857         1.202644
 H         2.124853         2.485508         0.859890
 H         3.676332         3.013830        -0.321019
