19
Iteration:  3203charge 0 multiplicity 1
 C         0.844423         2.860225        -1.739951
 C         1.894430         1.929436        -1.315925
 C         3.142886         1.438888        -2.286468
 C         3.198176         0.202559        -1.342765
 O         3.719342        -0.976420        -1.702316
 C         1.797763         0.488726        -0.804578
 C         2.999318         0.743670         0.109189
 O         3.557704        -0.066602         1.066061
 C         2.725075         2.215368         0.031457
 H         0.191111         3.271267        -0.999939
 H         1.427919         3.744551        -2.229359
 H         0.340000         2.477276        -2.676204
 H         2.727706         1.158169        -3.210266
 H         4.052552         2.076914        -2.310850
 H         4.274094        -1.325509        -0.991347
 H         1.047236        -0.216674        -0.795627
 H         2.945796        -0.706735         1.518270
 H         2.067733         2.599881         0.928836
 H         3.508633         2.990097        -0.249840
