19
Iteration:   739charge 0 multiplicity 1
 C         0.833104         2.885617        -1.825588
 C         1.943199         1.968000        -1.210568
 C         3.000446         1.496679        -2.330618
 C         3.174849         0.225658        -1.371010
 O         3.851874        -0.974837        -1.737032
 C         1.793402         0.322997        -0.808298
 C         2.981625         0.681051         0.116688
 O         3.508997        -0.047045         1.141867
 C         2.822953         2.239705         0.028392
 H        -0.009269         3.059420        -1.191455
 H         1.181791         3.823873        -2.117187
 H         0.384576         2.394765        -2.722761
 H         2.586076         1.199894        -3.315516
 H         3.886406         2.075610        -2.649970
 H         4.015370        -1.460753        -0.916981
 H         1.033431        -0.355913        -0.668450
 H         2.945699         0.053968         1.968179
 H         2.169615         2.745642         0.818589
 H         3.683979         2.902200        -0.253830
