19
Iteration:  4068charge 0 multiplicity 1
 C         0.800196         2.960119        -1.793539
 C         1.961120         1.924148        -1.373362
 C         3.115503         1.434937        -2.264264
 C         3.172913         0.210726        -1.350106
 O         3.839473        -0.977940        -1.556946
 C         1.733239         0.386927        -0.825276
 C         2.956158         0.669631         0.070940
 O         3.486141        -0.005157         1.176204
 C         2.766894         2.224763        -0.005107
 H        -0.006896         3.004160        -1.032331
 H         1.098073         4.005789        -1.950265
 H         0.333402         2.563185        -2.713395
 H         2.652348         1.015797        -3.212232
 H         4.032121         2.071451        -2.429825
 H         4.453578        -1.054793        -2.331478
 H         0.917006        -0.274633        -0.862769
 H         3.667383        -0.982735         1.052363
 H         2.148672         2.609733         0.818101
 H         3.660631         2.965853        -0.126340
