19
Iteration:  3949charge 0 multiplicity 1
 C         0.803069         2.882160        -1.670767
 C         1.971890         1.913939        -1.416865
 C         3.085351         1.377867        -2.304020
 C         3.079303         0.141385        -1.402298
 O         3.948216        -0.996600        -1.685755
 C         1.753759         0.561556        -0.798662
 C         2.904011         0.747512         0.061564
 O         3.402693        -0.051970         1.103494
 C         2.869142         2.199262         0.060247
 H         0.092711         3.077754        -0.799055
 H         0.935329         3.870667        -2.184933
 H         0.326993         2.246382        -2.477915
 H         2.778464         1.223333        -3.305335
 H         3.981001         2.008500        -2.406728
 H         4.073173        -1.497588        -0.886808
 H         0.924621        -0.126646        -0.645902
 H         3.933083         0.526413         1.623575
 H         2.229040         2.720856         0.700681
 H         3.751067         2.765301        -0.040063
