19
Iteration:   446charge 0 multiplicity 1
 C         0.842420         2.839340        -1.851162
 C         1.952660         1.892220        -1.264855
 C         3.082692         1.517935        -2.224199
 C         3.177654         0.230273        -1.364096
 O         3.735257        -0.954815        -1.750395
 C         1.722639         0.431995        -0.785245
 C         2.971131         0.673321         0.082111
 O         3.589553        -0.046370         1.075415
 C         2.754793         2.166508         0.057059
 H         0.015194         2.999627        -1.098007
 H         1.311256         3.852834        -1.913606
 H         0.463164         2.424495        -2.857796
 H         2.844510         1.273768        -3.289222
 H         3.966570         2.268918        -2.222397
 H         4.362795        -1.277544        -1.024929
 H         0.825452        -0.355483        -0.621545
 H         3.420230         0.356489         1.968356
 H         2.168819         2.537026         0.874941
 H         3.615342         2.841683        -0.201394
