19
Iteration:  3570charge 0 multiplicity 1
 C         0.863331         2.971919        -1.777129
 C         1.902436         1.943627        -1.356876
 C         3.076421         1.380784        -2.253270
 C         3.171525         0.238463        -1.337103
 O         3.812628        -0.966918        -1.671675
 C         1.751531         0.417287        -0.800926
 C         2.951116         0.660979         0.100171
 O         3.507957        -0.087338         1.101327
 C         2.710562         2.238674         0.010266
 H        -0.016454         3.016206        -1.078779
 H         1.552135         3.847497        -1.742854
 H         0.425641         2.780746        -2.786095
 H         2.695896         0.902297        -3.199305
 H         4.055971         1.854313        -2.553087
 H         4.302053        -1.292224        -0.877256
 H         0.902423        -0.335633        -0.774289
 H         4.424082         0.198630         0.941993
 H         1.993226         2.706348         0.801002
 H         3.643759         2.892755        -0.009438
