19
Iteration:  2451charge 0 multiplicity 1
 C         0.940391         2.897136        -1.711941
 C         1.916947         1.908599        -1.237876
 C         3.036825         1.399847        -2.307840
 C         3.123592         0.140390        -1.443365
 O         3.746247        -1.039042        -1.716960
 C         1.723379         0.470452        -0.766066
 C         3.101207         0.696343        -0.009157
 O         3.510545         0.076975         1.125567
 C         2.784280         2.255467         0.071629
 H        -0.005499         2.883818        -1.160886
 H         1.484888         3.944037        -1.738340
 H         0.605384         2.606967        -2.814487
 H         2.439671         1.224448        -3.200662
 H         3.849762         2.156838        -2.413220
 H         4.567491        -1.142892        -1.141242
 H         0.921561        -0.302111        -0.962676
 H         2.997300        -0.682476         1.490319
 H         2.101535         2.290532         0.976369
 H         3.649622         3.123426        -0.101343
