19
Iteration:  2283
 C         0.900233         2.893379        -1.759687
 C         1.998820         1.942968        -1.294581
 C         2.981486         1.466222        -2.349770
 C         3.212699         0.259367        -1.381042
 O         3.686265        -1.012314        -1.622944
 C         1.784478         0.378619        -0.810314
 C         2.973492         0.666149         0.032263
 O         3.581362        -0.019695         1.071741
 C         2.752520         2.184958         0.087882
 H        -0.112629         3.002868        -1.352060
 H         1.382833         3.918499        -1.668433
 H         0.597895         2.630279        -2.715876
 H         2.525685         1.232260        -3.359998
 H         3.885455         2.006584        -2.325418
 H         4.645107        -0.949747        -1.374323
 H         0.866338        -0.182234        -1.165912
 H         3.105265         0.122950         1.929054
 H         2.142813         2.450621         0.909427
 H         3.673756         2.701573         0.261045
