19
Iteration:  1154
 C         0.792038         2.733124        -1.744047
 C         2.004323         1.948481        -1.320306
 C         3.081326         1.485676        -2.265251
 C         3.156420         0.203110        -1.475274
 O         3.714053        -0.971256        -1.776940
 C         1.773317         0.413403        -0.843734
 C         2.998288         0.658240         0.105683
 O         3.513167         0.128310         1.304766
 C         2.818157         2.207981        -0.012258
 H         0.013196         2.708253        -0.989473
 H         1.174958         3.727404        -1.877274
 H         0.358090         2.439219        -2.741055
 H         2.890872         1.141023        -3.274672
 H         4.108170         2.100065        -2.271570
 H         4.437013        -1.140145        -1.093239
 H         0.913617        -0.251307        -0.818766
 H         3.257662        -0.812760         1.485234
 H         2.359891         2.846662         0.660596
 H         3.600446         2.862046        -0.244191
