19
Iteration:  2849
 C         0.873742         2.904078        -1.661588
 C         2.027155         1.947539        -1.337444
 C         3.045010         1.430033        -2.351652
 C         3.196325         0.182053        -1.388810
 O         3.724144        -1.000277        -1.747467
 C         1.734153         0.490952        -0.831979
 C         2.963966         0.723736         0.138547
 O         3.506166        -0.022919         1.262528
 C         2.819617         2.193544        -0.067180
 H         0.188805         2.940718        -0.768762
 H         1.171567         3.887976        -1.952326
 H         0.215247         2.519922        -2.417785
 H         2.578776         0.873131        -3.114895
 H         4.019452         2.016159        -2.419199
 H         4.689596        -1.078793        -1.683780
 H         0.729838        -0.086044        -0.671561
 H         3.241189        -0.956115         1.204254
 H         2.134648         2.918210         0.412452
 H         3.665589         2.802039        -0.206528
