19
Iteration:  4625charge 0 multiplicity 1
 C         0.865317         2.982371        -1.787970
 C         1.895740         1.904903        -1.315178
 C         3.090216         1.421389        -2.253102
 C         3.178405         0.205719        -1.465745
 O         3.882555        -1.001769        -1.561370
 C         1.769656         0.467548        -0.861335
 C         2.974230         0.692786         0.027282
 O         3.604339        -0.051260         1.094714
 C         2.598676         2.168726         0.040288
 H         0.154972         3.395542        -1.085098
 H         1.298181         3.915472        -2.159595
 H         0.399037         2.612458        -2.674236
 H         2.816786         1.300575        -3.287001
 H         3.923981         2.095180        -2.297577
 H         4.080857        -1.206721        -0.650772
 H         0.935029        -0.144319        -0.649539
 H         2.998791        -0.733573         1.342401
 H         1.970374         2.437712         0.958398
 H         3.412434         2.977967        -0.027173
