19
Iteration:   362charge 0 multiplicity 1
 C         0.815048         2.889397        -1.697644
 C         1.939933         1.902441        -1.334304
 C         3.038332         1.427443        -2.340757
 C         3.191268         0.235770        -1.367049
 O         3.844558        -0.950302        -1.721089
 C         1.763434         0.405141        -0.797404
 C         2.939540         0.705475         0.070320
 O         3.499301        -0.020372         1.164024
 C         2.869563         2.208025         0.018808
 H         0.122907         3.065341        -0.907806
 H         1.215200         3.850001        -2.013937
 H         0.168810         2.637923        -2.523504
 H         2.619366         1.173864        -3.293067
 H         3.843907         2.137872        -2.424933
 H         4.463497        -1.139941        -1.017748
 H         0.875252        -0.267775        -0.700992
 H         2.877820        -0.727162         1.311471
 H         2.060539         2.651245         0.669760
 H         3.810587         2.792804        -0.193031
