19
Iteration:  4657
 C         0.964180         2.896089        -1.783054
 C         1.983764         1.926884        -1.317608
 C         3.077726         1.408302        -2.258946
 C         3.220934         0.279465        -1.383149
 O         3.759772        -0.953726        -1.598367
 C         1.778046         0.397834        -0.870407
 C         2.853149         0.663175         0.134541
 O         3.585039        -0.007447         1.027159
 C         2.612742         2.209867         0.062453
 H         0.034555         2.909302        -1.216101
 H         1.397225         3.938560        -1.913302
 H         0.692306         2.487956        -2.748450
 H         2.496021         1.048884        -3.122242
 H         3.919678         2.029363        -2.436897
 H         4.754829        -0.830842        -1.507054
 H         1.030208        -0.360201        -0.834420
 H         3.039791        -0.545518         1.672210
 H         1.901590         2.502051         0.886466
 H         3.569889         2.749389        -0.029131
