19
Iteration:  3148charge 0 multiplicity 1
 C         0.916023         2.925057        -1.706678
 C         1.933906         1.946235        -1.360717
 C         3.047505         1.334523        -2.325093
 C         3.166090         0.171201        -1.283844
 O         3.919011        -0.872331        -1.696186
 C         1.596439         0.510496        -0.863697
 C         2.918482         0.700212         0.096052
 O         3.500546        -0.105125         1.072516
 C         2.847483         2.167187        -0.001188
 H         0.310740         2.862478        -0.837833
 H         1.270305         3.994932        -1.853351
 H         0.133455         2.571733        -2.422467
 H         2.513194         1.094768        -3.244320
 H         4.036155         1.792566        -2.712284
 H         4.467442        -1.238583        -0.966104
 H         0.698353        -0.072938        -0.872137
 H         3.161877         0.058884         1.997674
 H         2.156901         2.494367         0.901570
 H         3.671150         2.947422        -0.061409
