19
Iteration:  1886
 C         0.819196         2.931573        -1.640696
 C         1.941512         1.918063        -1.398427
 C         3.110047         1.425208        -2.262780
 C         3.149663         0.223259        -1.313329
 O         3.808512        -0.953507        -1.689917
 C         1.771541         0.411716        -0.836007
 C         2.941648         0.725066         0.067762
 O         3.559184        -0.125478         1.060091
 C         2.752161         2.259632        -0.045527
 H         0.342361         3.428641        -0.769133
 H         1.247777         3.806239        -2.126841
 H         0.005420         2.534969        -2.214931
 H         2.948824         1.000650        -3.261675
 H         4.006277         2.060875        -2.468106
 H         4.232400        -1.273497        -0.834939
 H         1.064276        -0.416536        -0.933099
 H         2.982993        -0.131968         1.827977
 H         2.023234         2.564386         0.765407
 H         3.676136         2.879895        -0.150170
