19
Iteration:  4582charge 0 multiplicity 1
 C         0.847043         2.770924        -1.758762
 C         1.973831         1.936677        -1.286495
 C         3.133816         1.442753        -2.388457
 C         3.135529         0.287195        -1.384760
 O         3.910185        -0.844347        -1.635553
 C         1.712998         0.503218        -0.863450
 C         2.930723         0.637444         0.169450
 O         3.381593        -0.191821         1.128592
 C         2.802117         2.217919        -0.070863
 H         0.371336         3.089124        -0.807649
 H         1.225771         3.750984        -2.045460
 H         0.236195         2.321763        -2.509721
 H         2.659499         1.175566        -3.341674
 H         4.156194         1.961048        -2.605714
 H         4.476185        -1.118525        -0.860116
 H         0.753124        -0.003250        -0.783849
 H         3.458332         0.230461         1.977271
 H         2.058583         2.643513         0.716436
 H         3.740297         2.895717        -0.016287
