19
Iteration:  4749
 C         0.816146         2.850891        -1.744636
 C         1.910230         1.922459        -1.347650
 C         3.113019         1.500387        -2.359048
 C         3.186634         0.211142        -1.454779
 O         3.904212        -0.878217        -1.597594
 C         1.768192         0.447552        -0.820701
 C         2.972768         0.663529         0.025000
 O         3.473774        -0.046984         1.199712
 C         2.815574         2.186740         0.036009
 H         0.138556         3.192582        -0.948184
 H         1.198127         3.734224        -2.186725
 H         0.194634         2.316873        -2.492463
 H         2.781639         1.151430        -3.291951
 H         4.040285         2.074765        -2.446706
 H         3.473993        -1.632624        -1.252120
 H         0.859035        -0.263982        -0.755993
 H         2.673725        -0.414876         1.553295
 H         2.087483         2.348893         0.842950
 H         3.765461         2.837736        -0.047617
