19
Iteration:  1357charge 0 multiplicity 1
 C         0.743027         2.883911        -1.625955
 C         1.901855         1.918013        -1.282868
 C         3.067866         1.435301        -2.364263
 C         3.218199         0.217861        -1.427203
 O         3.856706        -1.038777        -1.628852
 C         1.788174         0.362345        -0.795546
 C         2.965788         0.736104         0.080817
 O         3.362225         0.056247         1.157355
 C         2.922840         2.244996        -0.089216
 H         0.124891         3.092896        -0.775207
 H         1.272539         3.768643        -2.051928
 H         0.077726         2.479058        -2.405512
 H         2.619757         1.252573        -3.444573
 H         4.008415         2.096827        -2.332501
 H         4.801939        -0.972650        -1.803931
 H         0.934926        -0.287202        -0.333058
 H         3.433484        -0.898831         0.904942
 H         2.371267         2.690763         0.776444
 H         3.792627         2.844296        -0.316975
