19
Iteration:   695
 C         0.785625         2.853555        -1.626894
 C         2.009699         1.976272        -1.297103
 C         3.109948         1.382672        -2.320022
 C         3.126555         0.187525        -1.425837
 O         3.906045        -0.973417        -1.624493
 C         1.759542         0.384639        -0.820137
 C         2.967460         0.766238        -0.006979
 O         3.454115        -0.042150         1.045518
 C         2.793576         2.273441        -0.038732
 H         0.193850         2.981789        -0.749352
 H         1.112077         3.760690        -1.992948
 H         0.214941         2.303626        -2.378447
 H         2.635058         1.387947        -3.314417
 H         4.041806         1.950948        -2.519956
 H         4.150532        -1.230743        -0.689607
 H         0.931516        -0.139724        -0.553164
 H         2.686426        -0.151362         1.669808
 H         2.179137         2.525238         0.912567
 H         3.709931         2.894807        -0.085746
