19
Iteration:  4365charge 0 multiplicity 1
 C         0.854121         2.881469        -1.849116
 C         1.985222         1.911300        -1.317432
 C         3.010018         1.483896        -2.280991
 C         3.252045         0.268460        -1.400868
 O         3.895961        -0.898614        -1.606184
 C         1.791464         0.330397        -0.849288
 C         2.956734         0.658368         0.058906
 O         3.386523        -0.090878         1.218531
 C         2.764487         2.200765         0.052975
 H        -0.009185         2.887106        -1.087964
 H         1.244345         3.905479        -1.946555
 H         0.521876         2.621369        -2.858556
 H         2.672493         1.333453        -3.389382
 H         4.020449         1.918794        -2.346055
 H         3.492911        -1.429530        -2.290491
 H         1.014516        -0.385597        -0.768175
 H         3.745136         0.581797         1.792881
 H         2.115420         2.529313         0.827013
 H         3.535246         2.975865        -0.073794
