19
Iteration:  2447
 C         0.963158         2.914079        -1.750247
 C         1.900887         1.902370        -1.219251
 C         3.020702         1.403643        -2.294460
 C         3.109766         0.178232        -1.462489
 O         3.749430        -1.044165        -1.702926
 C         1.704787         0.447441        -0.781411
 C         3.106153         0.688168        -0.023108
 O         3.529834         0.080345         1.133422
 C         2.801483         2.230836         0.077301
 H         0.029781         2.906555        -1.185863
 H         1.373396         3.922222        -1.792433
 H         0.664706         2.499389        -2.647291
 H         2.439686         1.181691        -3.235348
 H         3.817457         2.088159        -2.381762
 H         4.543697        -1.047046        -1.175586
 H         0.907382        -0.264619        -1.026712
 H         2.948546        -0.612438         1.470287
 H         2.235173         2.403839         1.039931
 H         3.529768         3.093965         0.105610
