19
Iteration:  4025charge 0 multiplicity 1
 C         0.924477         2.859965        -1.803775
 C         1.981333         1.997038        -1.272369
 C         3.070575         1.407539        -2.301693
 C         3.127919         0.221124        -1.363472
 O         3.763133        -1.032427        -1.645636
 C         1.738879         0.360617        -0.822316
 C         3.052166         0.776421         0.052261
 O         3.466996        -0.029749         1.159034
 C         2.650848         2.214175        -0.003559
 H         0.091496         3.084262        -1.066488
 H         1.338047         3.894222        -1.959985
 H         0.467018         2.491342        -2.742591
 H         2.638013         1.196459        -3.281974
 H         4.044065         1.977685        -2.265827
 H         4.678637        -0.792285        -1.311285
 H         0.826460        -0.166636        -0.730464
 H         4.453020        -0.197794         1.058890
 H         1.994166         2.424570         0.802161
 H         3.462341         2.961858         0.082420
