19
Iteration:  3155charge 0 multiplicity 1
 C         0.866701         2.959617        -1.723799
 C         1.926869         1.948895        -1.274008
 C         3.039593         1.331638        -2.382230
 C         3.157765         0.205205        -1.366704
 O         3.928916        -0.931956        -1.706162
 C         1.676034         0.461110        -0.860342
 C         2.911600         0.700180         0.059125
 O         3.515810        -0.101973         1.120661
 C         2.854297         2.212157         0.057410
 H         0.184427         3.086275        -0.797598
 H         1.262096         3.947292        -1.985101
 H         0.239769         2.637974        -2.562316
 H         2.451246         0.890874        -3.222079
 H         3.973814         1.801666        -2.539546
 H         4.438185        -1.202336        -0.884127
 H         0.619706         0.006475        -0.931738
 H         2.917791         0.128156         1.842812
 H         2.076660         2.549298         0.771123
 H         3.773734         2.795027         0.172815
