19
Iteration:  2125
 C         0.818352         2.937752        -1.704695
 C         2.023650         1.959328        -1.331185
 C         3.063009         1.400235        -2.306250
 C         3.181046         0.243393        -1.334638
 O         3.750261        -0.979748        -1.649413
 C         1.695392         0.410107        -0.956963
 C         2.938678         0.665698         0.121855
 O         3.658357        -0.000937         1.056386
 C         2.742792         2.190675         0.042675
 H         0.045018         2.899217        -0.931892
 H         1.355358         3.870008        -1.682202
 H         0.326328         2.755674        -2.687944
 H         2.621446         1.179617        -3.229723
 H         3.929634         2.043801        -2.428814
 H         4.077227        -1.436146        -0.870857
 H         0.886376        -0.412191        -0.989878
 H         3.123589        -0.089715         1.848578
 H         2.102955         2.433874         0.804404
 H         3.684480         2.689792        -0.102321
