19
Iteration:  1720charge 0 multiplicity 1
 C         0.918368         2.879337        -1.786306
 C         1.915367         1.935748        -1.259302
 C         3.027322         1.443924        -2.260581
 C         3.143756         0.166020        -1.410562
 O         3.834648        -1.019565        -1.709436
 C         1.763525         0.436371        -0.696925
 C         3.026533         0.725044         0.066175
 O         3.488374        -0.066753         1.063048
 C         2.770006         2.237745        -0.028065
 H         0.233971         3.189545        -0.940955
 H         1.232778         3.905032        -2.092122
 H         0.214438         2.485478        -2.601998
 H         2.577363         1.560217        -3.235136
 H         3.948872         2.097684        -2.324992
 H         4.722693        -0.868158        -1.405164
 H         0.938721        -0.284485        -0.401066
 H         2.774782        -0.220726         1.667963
 H         2.104319         2.442214         0.911974
 H         3.548216         3.101299        -0.117890
