19
Iteration:  4581charge 0 multiplicity 1
 C         0.840239         2.768754        -1.752839
 C         1.982588         1.937278        -1.294707
 C         3.140881         1.449306        -2.388781
 C         3.136257         0.292329        -1.374907
 O         3.913661        -0.847143        -1.638544
 C         1.706095         0.501474        -0.860679
 C         2.934440         0.639301         0.169391
 O         3.377757        -0.199256         1.135835
 C         2.803101         2.222638        -0.079006
 H         0.366826         3.091752        -0.844916
 H         1.205916         3.759030        -2.049684
 H         0.242000         2.343780        -2.514352
 H         2.655734         1.175998        -3.346211
 H         4.124240         1.912846        -2.640955
 H         4.476563        -1.114378        -0.893799
 H         0.705675        -0.010477        -0.773593
 H         3.490656         0.232741         1.961809
 H         2.060033         2.632249         0.731503
 H         3.723702         2.907127         0.004401
