19
Iteration:  4102
 C         0.876823         2.861924        -1.746470
 C         2.027038         1.918748        -1.264214
 C         3.118047         1.450335        -2.330267
 C         3.200766         0.230865        -1.489076
 O         3.891187        -0.947651        -1.527097
 C         1.779597         0.361483        -0.780087
 C         2.926763         0.697138         0.047616
 O         3.392626         0.012790         1.105248
 C         2.783382         2.265516         0.079530
 H        -0.000052         2.967716        -1.032737
 H         1.098717         3.786814        -2.272730
 H         0.356830         2.250757        -2.521523
 H         2.620676         1.013308        -3.263274
 H         3.887768         2.222559        -2.703702
 H         3.615243        -1.349605        -2.377402
 H         0.851767        -0.196371        -0.453321
 H         3.132847        -0.915469         1.114040
 H         1.979431         2.601132         0.716406
 H         3.617216         3.078087        -0.029531
