19
Iteration:  4818charge 0 multiplicity 1
 C         0.929125         2.834842        -1.806623
 C         1.893721         1.967091        -1.228036
 C         3.069143         1.460729        -2.328566
 C         3.188137         0.250119        -1.398439
 O         3.834866        -0.994358        -1.592862
 C         1.739435         0.400715        -0.859528
 C         2.978473         0.709520         0.098387
 O         3.543442        -0.024687         1.147032
 C         2.699290         2.149640         0.015439
 H         0.027209         3.072960        -1.249007
 H         1.365505         3.876831        -1.909323
 H         0.662676         2.484824        -2.829013
 H         2.451078         1.237762        -3.235403
 H         4.002088         2.083971        -2.462036
 H         4.025877        -0.983626        -2.538371
 H         0.966758        -0.307448        -0.783158
 H         3.102109         0.339726         1.924758
 H         1.971616         2.368069         0.808900
 H         3.648638         2.781259         0.120268
