19
Iteration:  3173
 C         0.904976         2.950980        -1.725724
 C         1.985620         1.989948        -1.286480
 C         2.975434         1.492170        -2.360551
 C         3.158810         0.144766        -1.477176
 O         3.850249        -0.992218        -1.675250
 C         1.842354         0.368744        -0.791554
 C         3.002022         0.710355         0.080760
 O         3.450181        -0.028755         1.115047
 C         2.749316         2.158993         0.051749
 H         0.104473         3.232526        -1.030746
 H         1.433666         3.820568        -2.096541
 H         0.349267         2.466035        -2.538161
 H         2.354792         1.353620        -3.272712
 H         3.876798         2.168247        -2.648300
 H         4.168605        -1.263961        -0.757341
 H         1.143900        -0.404139        -0.511051
 H         2.797032        -0.302611         1.773653
 H         2.213858         2.513996         0.898850
 H         3.573023         2.884678        -0.135366
