19
Iteration:  2431charge 0 multiplicity 1
 C         0.916455         2.912184        -1.825892
 C         1.990642         2.003788        -1.241282
 C         2.966432         1.483337        -2.295915
 C         3.112455         0.208440        -1.412809
 O         3.720781        -0.995265        -1.665637
 C         1.763012         0.367459        -0.833212
 C         2.956447         0.674417         0.070756
 O         3.632494         0.031062         1.133597
 C         2.788641         2.129062         0.075751
 H         0.081562         3.157695        -1.147163
 H         1.466221         3.824672        -2.127126
 H         0.468475         2.535760        -2.824901
 H         2.447115         1.269150        -3.224398
 H         3.967664         2.054408        -2.497285
 H         4.623913        -0.983304        -1.269749
 H         0.887371        -0.210767        -0.528428
 H         2.930972        -0.547143         1.557368
 H         2.065504         2.334898         0.842491
 H         3.720727         2.576567        -0.098165
