19
Iteration:  3300charge 0 multiplicity 1
 C         0.972625         2.893623        -1.686949
 C         1.980406         1.922991        -1.299567
 C         2.961948         1.369064        -2.418012
 C         3.126205         0.218002        -1.340713
 O         3.953647        -0.897059        -1.685615
 C         1.740626         0.456164        -0.806235
 C         2.893832         0.669192         0.063353
 O         3.359961        -0.076123         1.106652
 C         2.794804         2.205964         0.017631
 H         0.423047         3.123705        -0.836303
 H         1.255468         3.954078        -1.993378
 H         0.516387         2.621852        -2.652543
 H         2.421579         0.941923        -3.297993
 H         3.858201         1.970101        -2.626805
 H         4.251622        -1.333508        -0.820853
 H         0.945540        -0.210285        -0.514713
 H         4.278498         0.351258         1.271269
 H         2.039507         2.371059         0.850752
 H         3.581013         2.884870         0.142039
