19
Iteration:  1878
 C         0.808802         2.971617        -1.647802
 C         1.921001         1.938082        -1.338174
 C         3.105799         1.369075        -2.306343
 C         3.156298         0.232250        -1.359506
 O         3.852773        -0.924249        -1.662080
 C         1.762189         0.389967        -0.823337
 C         3.007295         0.688584         0.056752
 O         3.503205        -0.121587         1.062545
 C         2.745659         2.217412        -0.081494
 H         0.583343         3.308565        -0.633805
 H         1.333398         3.815832        -2.178444
 H         0.033084         2.465803        -2.206048
 H         2.846734         1.150833        -3.376474
 H         3.878267         2.082397        -2.181427
 H         4.388538        -1.281689        -0.900875
 H         0.732216        -0.225775        -0.684456
 H         2.972908        -0.131114         1.840155
 H         2.140684         2.737731         0.726409
 H         3.553009         3.047922        -0.206524
