19
Iteration:  2197charge 0 multiplicity 1
 C         0.860902         2.877361        -1.758701
 C         1.942665         1.954697        -1.329089
 C         2.997537         1.402967        -2.347920
 C         3.197541         0.299793        -1.366624
 O         3.835757        -0.901342        -1.681289
 C         1.727129         0.509602        -0.734600
 C         2.968357         0.695692         0.154446
 O         3.493976        -0.174547         1.079102
 C         2.866941         2.259767        -0.006611
 H         0.260465         3.153376        -0.874618
 H         1.374449         3.765050        -2.296370
 H         0.189627         2.317837        -2.462347
 H         2.475774         0.898312        -3.246075
 H         3.891473         1.993842        -2.772420
 H         4.143480        -1.394077        -0.895027
 H         1.013263        -0.403384        -0.961248
 H         2.828404        -0.433524         1.698933
 H         2.207441         2.567555         0.867427
 H         3.850611         2.684031        -0.137987
