19
Iteration:  2206
 C         0.893773         2.846510        -1.765437
 C         2.012316         1.906042        -1.277753
 C         2.975846         1.463574        -2.322509
 C         3.153283         0.272789        -1.341503
 O         3.817864        -0.930449        -1.680134
 C         1.755412         0.495516        -0.816741
 C         2.979843         0.693288         0.057368
 O         3.503338        -0.112569         1.088441
 C         2.881747         2.191621         0.043867
 H         0.250955         3.189496        -0.906365
 H         1.078436         3.759298        -2.464548
 H         0.351528         2.222593        -2.494797
 H         2.436131         1.014761        -3.229954
 H         3.634067         2.310981        -2.622278
 H         3.891600        -1.208463        -0.752854
 H         0.831427        -0.140579        -0.749967
 H         2.880964        -0.489703         1.684307
 H         2.174413         2.703371         0.667658
 H         3.754750         2.821028         0.022952
