19
Iteration:   385charge 0 multiplicity 1
 C         0.827313         2.839849        -1.634811
 C         1.925676         1.939715        -1.258651
 C         3.057535         1.467431        -2.289268
 C         3.166370         0.200684        -1.462921
 O         3.783863        -1.045938        -1.596222
 C         1.835877         0.398395        -0.844389
 C         3.108550         0.709170        -0.019312
 O         3.440312        -0.000676         1.092455
 C         2.777364         2.261547        -0.021867
 H         0.184281         3.052352        -0.811347
 H         1.280153         3.774836        -1.976013
 H         0.213694         2.536438        -2.444417
 H         2.794537         1.481671        -3.306484
 H         3.899885         2.067015        -2.104024
 H         4.729297        -0.928440        -1.292993
 H         1.086525        -0.242806        -0.654570
 H         2.605010        -0.551245         1.171200
 H         2.105540         2.557445         0.856674
 H         3.371796         3.118774        -0.386515
