19
Iteration:  3352
 C         0.834113         2.813403        -1.775047
 C         1.995146         1.923435        -1.385161
 C         3.134095         1.468875        -2.255525
 C         3.235303         0.285669        -1.316052
 O         3.755159        -0.933835        -1.726050
 C         1.816359         0.394518        -0.734733
 C         2.984217         0.686602         0.066608
 O         3.395023        -0.138782         1.093574
 C         2.742126         2.296982         0.022610
 H         0.186327         3.148326        -0.883374
 H         1.131095         3.792246        -2.178404
 H         0.136996         2.433686        -2.565559
 H         2.777940         1.001546        -3.290626
 H         3.981240         2.154544        -2.481866
 H         3.678593        -1.607772        -0.978514
 H         0.905121        -0.088110        -0.679344
 H         4.248605         0.149943         1.494118
 H         2.149086         2.696811         0.888624
 H         3.741724         2.969660        -0.064628
