19
Iteration:  2028
 C         0.840313         2.952242        -1.633795
 C         1.953940         1.867329        -1.346865
 C         3.096422         1.374100        -2.332435
 C         3.165768         0.215545        -1.343309
 O         3.876444        -0.891997        -1.685018
 C         1.774458         0.409692        -0.754667
 C         2.936436         0.717181         0.084082
 O         3.464202        -0.100323         1.025562
 C         2.781685         2.255762        -0.069979
 H         0.510691         3.366611        -0.633668
 H         1.400192         3.777706        -2.126323
 H        -0.073681         2.510861        -2.109860
 H         2.820125         1.112085        -3.376910
 H         4.052282         2.039813        -2.372525
 H         4.141871        -1.527550        -0.966709
 H         0.882447        -0.374899        -0.500594
 H         2.825415        -0.206264         1.729111
 H         1.963135         2.674955         0.574666
 H         3.682875         2.928080        -0.294135
