19
Iteration:  1943charge 0 multiplicity 1
 C         0.815312         2.822529        -1.879890
 C         1.953878         1.998401        -1.247734
 C         3.123117         1.498304        -2.216378
 C         3.115777         0.161024        -1.372077
 O         3.726808        -1.018197        -1.706460
 C         1.788722         0.477219        -0.701686
 C         2.998467         0.718866         0.053656
 O         3.619500        -0.110844         0.974698
 C         2.716292         2.278879         0.076956
 H        -0.118150         2.708419        -1.335810
 H         1.087628         3.895475        -1.926487
 H         0.615931         2.682239        -2.925662
 H         2.944639         1.314402        -3.294470
 H         4.031717         1.984472        -1.980769
 H         4.444781        -1.208015        -1.091837
 H         0.832166        -0.138766        -0.340958
 H         2.954668        -0.231391         1.686554
 H         2.183258         2.501705         1.059423
 H         3.585174         3.016315        -0.087756
