19
Iteration:  3725charge 0 multiplicity 1
 C         0.999600         2.897135        -1.758599
 C         1.968359         1.911073        -1.332867
 C         3.000905         1.393264        -2.311899
 C         3.230112         0.311577        -1.355990
 O         3.823072        -1.013049        -1.659172
 C         1.708047         0.418795        -0.741561
 C         2.991608         0.714269         0.040084
 O         3.468814        -0.069260         1.055493
 C         2.631916         2.231602         0.031549
 H         0.075154         2.979712        -1.206401
 H         1.458707         3.946294        -1.730118
 H         0.610504         2.674229        -2.774789
 H         2.626977         0.812120        -3.183587
 H         3.721273         2.154511        -2.536308
 H         4.042604        -1.202098        -0.746909
 H         0.835629        -0.253623        -0.517908
 H         4.341422         0.206651         1.330480
 H         1.967680         2.479554         0.861206
 H         3.519521         2.909313        -0.072902
