19
Iteration:   641charge 0 multiplicity 1
 C         0.913727         2.875657        -1.785364
 C         1.952801         1.912850        -1.356563
 C         3.058744         1.438121        -2.312011
 C         3.175190         0.214563        -1.310673
 O         3.784609        -0.983406        -1.660900
 C         1.725451         0.397106        -0.755610
 C         2.913964         0.766413         0.109636
 O         3.616698        -0.056723         0.974938
 C         2.700903         2.225100         0.071202
 H         0.153701         2.968864        -1.004531
 H         1.296303         3.809488        -1.991383
 H         0.378235         2.620003        -2.715858
 H         2.627540         1.222133        -3.338323
 H         4.076637         1.887232        -2.345088
 H         4.631859        -0.907838        -1.172620
 H         0.837786        -0.226969        -0.731063
 H         3.135414        -0.110961         1.853732
 H         1.883187         2.391119         0.844089
 H         3.511603         2.954884         0.258680
