19
Iteration:  3938charge 0 multiplicity 1
 C         0.774482         2.909223        -1.696288
 C         1.985677         1.997092        -1.308338
 C         3.087974         1.360043        -2.294478
 C         3.197670         0.206851        -1.370928
 O         3.941852        -1.016851        -1.658270
 C         1.693748         0.418278        -0.817664
 C         2.941843         0.726812         0.025095
 O         3.407624        -0.104717         1.099115
 C         2.806729         2.309493        -0.055043
 H         0.113680         3.047800        -0.775566
 H         1.278876         3.870492        -2.007552
 H         0.020098         2.571391        -2.466190
 H         2.606150         1.031456        -3.176907
 H         4.032159         1.913502        -2.403311
 H         3.989650        -1.478575        -0.794636
 H         0.725283        -0.118646        -0.723264
 H         4.044048         0.478463         1.521879
 H         2.215268         2.678114         0.737771
 H         3.765643         2.739097        -0.143291
