19
Iteration:  1023charge 0 multiplicity 1
 C         0.864508         2.821330        -1.708079
 C         1.939559         1.913361        -1.273835
 C         3.075858         1.272238        -2.315250
 C         3.229149         0.248824        -1.346991
 O         3.819591        -0.900523        -1.809690
 C         1.815996         0.434539        -0.844446
 C         2.971738         0.760602         0.059450
 O         3.464158        -0.008358         1.206335
 C         2.789157         2.342856         0.006572
 H         0.113986         2.873620        -0.896818
 H         0.975641         3.835652        -2.005331
 H         0.230046         2.275375        -2.498323
 H         2.644568         0.806283        -3.195991
 H         3.989599         1.774585        -2.700306
 H         4.026733        -1.587635        -1.197334
 H         1.019065        -0.355139        -0.729556
 H         2.760557        -0.254128         1.828989
 H         1.981278         2.538620         0.761733
 H         3.735184         3.047055        -0.029333
