19
Iteration:   974
 C         0.779921         2.754101        -1.843564
 C         1.972063         1.981569        -1.210573
 C         3.140313         1.458915        -2.272115
 C         3.083613         0.264928        -1.405691
 O         3.726648        -1.024459        -1.581084
 C         1.755668         0.409564        -0.863311
 C         3.032198         0.738441         0.048812
 O         3.576434         0.039850         1.076800
 C         2.770525         2.197755         0.076526
 H        -0.129407         2.912145        -1.224884
 H         1.146639         3.827000        -1.934063
 H         0.428075         2.484720        -2.794069
 H         2.768958         1.312722        -3.352514
 H         4.157277         2.010213        -2.372439
 H         4.729095        -1.054707        -1.439375
 H         0.905546        -0.124121        -0.786452
 H         2.970177        -0.641808         1.388854
 H         2.290887         2.569796         0.991376
 H         3.709767         2.723089        -0.147226
