19
Iteration:   713
 C         0.858831         2.768026        -1.648956
 C         1.980155         1.887642        -1.320813
 C         3.112482         1.292235        -2.329786
 C         3.129229         0.211066        -1.316039
 O         3.873875        -0.852493        -1.731086
 C         1.728714         0.545418        -0.839919
 C         3.020010         0.750102         0.072023
 O         3.490923        -0.065256         1.088107
 C         2.767993         2.271509        -0.000210
 H         0.190642         2.889570        -0.740401
 H         1.093981         3.836195        -2.101631
 H         0.109932         2.548819        -2.428248
 H         2.870250         0.790775        -3.257550
 H         4.055425         1.894005        -2.543366
 H         3.925476        -1.467195        -0.960382
 H         0.732292        -0.017833        -0.663693
 H         2.713110        -0.356205         1.622055
 H         2.044612         2.725502         0.640588
 H         3.509629         3.058746        -0.063945
