19
Iteration:  4503charge 0 multiplicity 1
 C         0.831239         2.911480        -1.818653
 C         1.945186         1.958453        -1.322926
 C         3.239541         1.374806        -2.250486
 C         3.195848         0.198725        -1.365052
 O         3.912491        -0.936917        -1.681795
 C         1.760760         0.393562        -0.848164
 C         2.866843         0.657782         0.117742
 O         3.491061        -0.009819         1.167156
 C         2.598996         2.263974         0.100921
 H        -0.019084         2.963424        -1.164575
 H         1.263521         3.920812        -2.027459
 H         0.415320         2.588277        -2.792850
 H         2.924315         0.891438        -3.254968
 H         3.904609         2.243149        -2.484262
 H         3.303205        -1.745209        -1.805557
 H         0.914752        -0.309227        -0.980275
 H         4.417235        -0.130908         0.844135
 H         1.880231         2.620998         0.951226
 H         3.520749         2.929106         0.215563
