19
Iteration:  2182charge 0 multiplicity 1
 C         0.805480         2.969515        -1.718009
 C         1.973804         1.929154        -1.272855
 C         3.042137         1.273447        -2.338021
 C         3.226654         0.249300        -1.263513
 O         3.858636        -0.894994        -1.714355
 C         1.746108         0.442564        -0.726630
 C         2.978337         0.742550         0.024344
 O         3.466071        -0.218195         1.063095
 C         2.794280         2.271825        -0.037163
 H         0.248052         3.304614        -0.791626
 H         1.174560         3.985999        -2.142970
 H         0.234256         2.738228        -2.627114
 H         2.462302         1.006350        -3.236571
 H         3.917447         1.884145        -2.609783
 H         4.443710        -1.070588        -0.889282
 H         1.023087        -0.254050        -0.747035
 H         2.788967        -0.212855         1.782307
 H         2.325336         2.898021         0.643295
 H         3.628802         2.909316        -0.364240
