19
Iteration:   773
 C         0.909007         2.903015        -1.824033
 C         1.978864         1.921862        -1.273199
 C         3.079723         1.469311        -2.295596
 C         3.117675         0.198904        -1.379569
 O         3.803491        -0.986522        -1.676961
 C         1.719563         0.376845        -0.739446
 C         2.952096         0.693515         0.077559
 O         3.619927        -0.000011         1.027108
 C         2.667447         2.160664         0.044656
 H         0.144927         3.035242        -1.089627
 H         1.396264         3.809483        -2.067451
 H         0.516605         2.453157        -2.753782
 H         2.644170         1.142454        -3.292112
 H         3.882074         2.211003        -2.242559
 H         4.565590        -1.005850        -1.129861
 H         0.802440        -0.317743        -0.464463
 H         3.150871         0.196949         1.890113
 H         1.830958         2.506379         0.773103
 H         3.442874         2.985579         0.059791
