19
Iteration:  2017charge 0 multiplicity 1
 C         0.885465         2.984388        -1.572012
 C         1.917194         1.868146        -1.305341
 C         3.082514         1.397481        -2.284244
 C         3.195613         0.182345        -1.428249
 O         3.958836        -1.012277        -1.688063
 C         1.739010         0.396848        -0.798910
 C         2.968199         0.769051         0.006401
 O         3.444174        -0.047303         1.035834
 C         2.735400         2.225473        -0.078115
 H         0.450064         3.290216        -0.573831
 H         1.142981         3.885953        -2.171297
 H         0.038057         2.643356        -2.251492
 H         2.575444         1.074467        -3.216090
 H         4.027485         2.065019        -2.474554
 H         4.020476        -1.312587        -0.775114
 H         0.727137        -0.249187        -0.488589
 H         2.781034         0.012740         1.788622
 H         2.148916         2.638987         0.792932
 H         3.609187         2.940158        -0.065549
