19
Iteration:   922charge 0 multiplicity 1
 C         0.847533         2.965792        -1.775563
 C         1.909833         1.923602        -1.288595
 C         2.991084         1.416708        -2.325483
 C         3.206441         0.195346        -1.409501
 O         3.828929        -1.005896        -1.586991
 C         1.759109         0.380850        -0.827427
 C         3.019493         0.711357         0.009119
 O         3.556736         0.007813         1.048249
 C         2.727793         2.145333         0.061682
 H         0.142617         3.303838        -0.966994
 H         1.511380         3.782765        -2.212925
 H         0.212920         2.645167        -2.644654
 H         2.727140         1.332715        -3.366055
 H         3.822411         2.197290        -2.336492
 H         4.414516        -1.231892        -0.789844
 H         1.082441        -0.484136        -0.720723
 H         3.038317         0.080812         1.879551
 H         2.051976         2.352118         0.924673
 H         3.532507         3.044119         0.132668
