19
Iteration:  3753charge 0 multiplicity 1
 C         0.881078         3.002621        -1.763008
 C         1.993260         1.999008        -1.357540
 C         2.939151         1.347225        -2.391538
 C         3.091688         0.210533        -1.443571
 O         3.972228        -0.934983        -1.595770
 C         1.716614         0.345781        -0.827710
 C         2.979666         0.697482         0.059504
 O         3.416698        -0.083613         1.133554
 C         2.788004         2.165891         0.093072
 H         0.004527         3.083637        -1.067414
 H         1.309412         3.969947        -1.880072
 H         0.322673         2.745591        -2.661462
 H         2.503010         1.018748        -3.329296
 H         3.916743         1.902038        -2.490607
 H         4.137308        -1.027482        -0.646403
 H         0.887187        -0.176164        -0.414624
 H         4.353804         0.090020         1.376299
 H         2.150391         2.707526         0.863698
 H         3.755275         2.682382        -0.171654
