19
Iteration:  2448charge 0 multiplicity 1
 C         0.957585         2.908883        -1.740362
 C         1.901946         1.902808        -1.224051
 C         3.028605         1.403563        -2.297957
 C         3.112525         0.167206        -1.459395
 O         3.748602        -1.042570        -1.706241
 C         1.708627         0.455278        -0.776716
 C         3.108131         0.689364        -0.020861
 O         3.524155         0.080835         1.130510
 C         2.797109         2.236852         0.076422
 H         0.027599         2.894125        -1.190854
 H         1.412823         3.947720        -1.777479
 H         0.651228         2.519712        -2.676001
 H         2.428928         1.188303        -3.230483
 H         3.796809         2.090194        -2.379803
 H         4.554864        -1.071767        -1.164714
 H         0.900602        -0.286260        -1.026098
 H         2.956933        -0.641612         1.488257
 H         2.193253         2.375571         1.043763
 H         3.579364         3.132331         0.055062
