19
Iteration:  4322charge 0 multiplicity 1
 C         0.873446         2.855757        -1.883845
 C         1.920095         1.990739        -1.280948
 C         3.152552         1.427612        -2.167696
 C         3.163782         0.165306        -1.327853
 O         3.899678        -0.993539        -1.613898
 C         1.729509         0.453700        -0.867093
 C         2.965377         0.704895         0.036976
 O         3.539427        -0.061049         1.089906
 C         2.670528         2.238952         0.033531
 H         0.124197         2.989732        -1.060775
 H         1.043299         3.894483        -2.069094
 H         0.443025         2.384850        -2.756320
 H         2.681053         1.300010        -3.261194
 H         3.861141         2.256552        -2.182788
 H         3.772577        -1.256343        -2.516295
 H         0.931541        -0.162931        -0.633078
 H         3.007391         0.054413         1.866890
 H         1.999772         2.470776         0.873982
 H         3.657083         2.820696         0.225943
