19
Iteration:  1851
 C         0.885645         2.910738        -1.674217
 C         1.970853         2.019590        -1.270078
 C         2.888429         1.384077        -2.351655
 C         3.090369         0.162050        -1.428448
 O         4.045540        -0.922749        -1.649399
 C         1.706736         0.431696        -0.783224
 C         2.968268         0.670322         0.013493
 O         3.396659        -0.052193         1.017469
 C         2.887033         2.190008         0.044330
 H         0.456896         3.281824        -0.733753
 H         1.517775         3.533952        -2.282646
 H         0.260296         2.457530        -2.461838
 H         2.299528         0.964517        -3.148303
 H         3.732641         2.164798        -2.475123
 H         4.463332        -1.179207        -0.772295
 H         0.924331        -0.188203        -0.665821
 H         2.746053        -0.118779         1.703329
 H         2.254865         2.535296         0.883982
 H         3.745170         2.852298         0.068144
