19
Iteration:   387
 C         0.827181         2.840178        -1.639613
 C         1.945058         1.919175        -1.264510
 C         3.051802         1.479440        -2.292931
 C         3.173940         0.191506        -1.453818
 O         3.783358        -1.055489        -1.591500
 C         1.838055         0.400069        -0.838431
 C         3.100179         0.734754        -0.037680
 O         3.438655        -0.003626         1.086771
 C         2.785580         2.268515        -0.003981
 H         0.134779         3.053160        -0.787610
 H         1.232161         3.812094        -1.994733
 H         0.163834         2.557560        -2.457878
 H         2.791756         1.497925        -3.330726
 H         3.838467         2.059223        -2.090560
 H         4.686846        -0.927940        -1.345456
 H         1.080752        -0.242568        -0.678525
 H         2.632398        -0.535565         1.217808
 H         2.080510         2.533567         0.778413
 H         3.388159         3.056266        -0.247019
