19
Iteration:   294
 C         0.760711         2.965544        -1.753865
 C         1.890118         1.935847        -1.264541
 C         3.124331         1.506528        -2.255818
 C         3.226668         0.213678        -1.341757
 O         3.796721        -1.023584        -1.622404
 C         1.747939         0.320432        -0.811368
 C         2.965075         0.729195         0.057692
 O         3.587637        -0.135446         0.965982
 C         2.711164         2.314885        -0.029532
 H         0.055805         3.241305        -1.003843
 H         1.310847         3.816558        -2.111811
 H         0.219555         2.590988        -2.625828
 H         2.843670         1.199342        -3.229600
 H         4.071368         2.012230        -2.100614
 H         4.359002        -1.315727        -0.820686
 H         0.804868        -0.454244        -0.661625
 H         3.620659         0.089024         1.907120
 H         2.000333         2.555202         0.825748
 H         3.691254         2.898153        -0.277498
