19
Iteration:  3342charge 0 multiplicity 1
 C         0.803324         2.894125        -1.761487
 C         1.946925         1.913329        -1.345515
 C         3.095216         1.450905        -2.255336
 C         3.221813         0.233545        -1.369494
 O         3.837801        -0.975519        -1.742705
 C         1.773439         0.475793        -0.767495
 C         2.977753         0.786843         0.117700
 O         3.396553        -0.177310         1.152273
 C         2.781245         2.216997        -0.032765
 H         0.161976         3.141113        -0.885235
 H         1.247450         3.796433        -2.230772
 H         0.224672         2.356216        -2.536235
 H         2.774628         1.265029        -3.362675
 H         3.934165         2.184987        -2.193827
 H         3.816107        -1.478417        -0.891038
 H         1.063450        -0.289331        -0.635135
 H         4.249684         0.210578         1.391006
 H         2.050051         2.777565         0.554318
 H         3.766314         2.743888        -0.175342
