19
Iteration:  2686charge 0 multiplicity 1
 C         0.851466         2.896057        -1.653333
 C         1.987153         1.936796        -1.359220
 C         3.083055         1.457374        -2.349363
 C         3.150640         0.159523        -1.428163
 O         3.742625        -1.030181        -1.717200
 C         1.761985         0.385223        -0.766827
 C         2.984446         0.761826         0.078992
 O         3.512036        -0.075288         1.171240
 C         2.846524         2.290918        -0.060275
 H         0.126513         3.028723        -0.779973
 H         1.235192         3.854065        -2.107845
 H         0.145550         2.529122        -2.435511
 H         2.524157         1.173669        -3.178360
 H         3.976764         2.006860        -2.394903
 H         4.555974        -1.016537        -1.212301
 H         0.824327        -0.001584        -0.580980
 H         2.724662        -0.171077         1.760518
 H         2.199409         2.661755         0.757305
 H         3.872454         2.890104        -0.023659
