19
Iteration:  1374
 C         0.848452         2.871485        -1.715459
 C         1.926116         1.880773        -1.354128
 C         2.962942         1.446415        -2.342920
 C         3.194205         0.279223        -1.358368
 O         3.753907        -0.959277        -1.563895
 C         1.822247         0.437801        -0.812290
 C         3.090366         0.684662         0.069536
 O         3.464846        -0.058115         1.184028
 C         2.780762         2.246397        -0.084888
 H         0.272861         3.163047        -0.767895
 H         1.162362         3.890546        -1.974368
 H         0.123019         2.512445        -2.452662
 H         2.618484         1.010251        -3.214399
 H         3.655664         2.187927        -2.678993
 H         4.679862        -0.765652        -1.464498
 H         1.149640        -0.309814        -0.932223
 H         3.615486        -0.970880         0.884652
 H         2.168282         2.604624         0.746988
 H         3.788110         2.722621        -0.259874
