19
Iteration:  3701
 C         0.812051         2.892513        -1.835649
 C         1.961991         1.929855        -1.305425
 C         3.148871         1.419477        -2.236407
 C         3.065092         0.234735        -1.392198
 O         3.793855        -0.999281        -1.725046
 C         1.788061         0.386541        -0.794439
 C         2.989031         0.708968         0.112539
 O         3.518378        -0.082425         1.162440
 C         2.737399         2.294027        -0.012882
 H        -0.019399         3.148766        -1.186825
 H         1.258702         3.859301        -1.948058
 H         0.433972         2.588863        -2.824001
 H         2.830863         1.194563        -3.233873
 H         4.010239         2.082159        -2.246231
 H         3.633850        -1.522051        -0.869202
 H         0.935787        -0.271602        -0.851941
 H         4.408094         0.299739         1.446016
 H         2.168473         2.529294         0.912156
 H         3.550159         2.926260        -0.008070
