19
Iteration:   501charge 0 multiplicity 1
 C         0.839652         2.945336        -1.706038
 C         1.995565         1.898771        -1.336478
 C         3.021253         1.422188        -2.427217
 C         3.174029         0.310181        -1.386786
 O         3.830748        -0.887285        -1.642831
 C         1.753432         0.358139        -0.812742
 C         2.889407         0.698688         0.189361
 O         3.611972        -0.092914         1.065346
 C         2.745709         2.201172         0.026163
 H         0.134587         3.132684        -0.846119
 H         1.443493         3.823738        -2.104344
 H         0.372821         2.512349        -2.670437
 H         2.602232         0.767616        -3.179977
 H         3.863626         2.006442        -2.719841
 H         4.125518        -1.267902        -0.749491
 H         0.807562        -0.358259        -0.771752
 H         3.036219        -0.532376         1.743026
 H         2.081094         2.725267         0.646898
 H         3.666721         2.791509        -0.049600
