19
Iteration:  4247charge 0 multiplicity 1
 C         0.835261         2.879230        -1.696038
 C         1.964407         1.945942        -1.408222
 C         3.112174         1.415625        -2.336379
 C         3.120015         0.194654        -1.403747
 O         3.975503        -0.955399        -1.577521
 C         1.775439         0.446942        -0.814729
 C         2.985331         0.719266         0.018548
 O         3.304887         0.016682         1.236704
 C         2.808741         2.165326         0.059682
 H         0.139148         2.966055        -0.843253
 H         1.164049         3.808760        -2.127482
 H         0.222937         2.579007        -2.587676
 H         2.817032         1.230534        -3.370693
 H         4.078937         1.882585        -2.544360
 H         3.768846        -1.329573        -2.480830
 H         0.974319        -0.160477        -0.590991
 H         3.783575        -0.808259         0.891718
 H         2.046459         2.535769         0.781169
 H         3.542743         3.042408        -0.070839
