19
Iteration:  4985charge 0 multiplicity 1
 C         0.797736         2.969926        -1.782901
 C         1.931633         1.926019        -1.315139
 C         3.100214         1.517135        -2.341635
 C         3.209357         0.173309        -1.421791
 O         3.866105        -0.994173        -1.657688
 C         1.814909         0.355486        -0.764686
 C         2.943564         0.703871         0.085842
 O         3.430659        -0.059199         1.152260
 C         2.694515         2.197781        -0.030613
 H         0.053028         3.023837        -0.959668
 H         1.347866         3.947824        -1.961265
 H         0.282741         2.486204        -2.576592
 H         2.562321         1.318913        -3.263930
 H         3.973191         2.097729        -2.396736
 H         4.181007        -1.253855        -0.737240
 H         1.248635        -0.482215        -0.498318
 H         4.362027         0.258048         1.261832
 H         1.976904         2.378445         0.837494
 H         3.594500         2.879791        -0.154593
