19
Iteration:  1688
 C         0.871460         2.879969        -1.708477
 C         2.016034         1.906944        -1.313507
 C         2.953048         1.375004        -2.413397
 C         3.162243         0.235457        -1.388429
 O         3.887975        -0.899873        -1.736930
 C         1.744725         0.467987        -0.791462
 C         2.900283         0.695332         0.094673
 O         3.437885         0.007191         1.183367
 C         2.914697         2.145143         0.037726
 H         0.384183         3.106996        -0.704928
 H         1.193903         3.841089        -2.195474
 H         0.085467         2.476834        -2.448999
 H         2.162420         1.142165        -3.104394
 H         3.817887         1.916557        -2.734630
 H         4.573647        -1.048105        -1.026400
 H         0.865457        -0.228524        -0.983979
 H         2.977710        -0.791327         1.573407
 H         2.329495         2.588971         0.925949
 H         3.889405         2.740111        -0.034715
