19
Iteration:  1472
 C         0.862308         2.807798        -1.729104
 C         2.038672         2.012847        -1.254668
 C         3.019017         1.350138        -2.377306
 C         3.165631         0.244370        -1.445171
 O         3.802127        -0.990757        -1.589411
 C         1.780386         0.524907        -0.821281
 C         3.070289         0.736140         0.091267
 O         3.448796        -0.038224         1.189267
 C         2.754194         2.190818         0.086155
 H         0.010231         2.809466        -0.979344
 H         1.074762         3.851073        -2.057129
 H         0.312571         2.378461        -2.578262
 H         2.403463         1.074281        -3.309581
 H         3.905317         1.837802        -2.860012
 H         3.801885        -1.099754        -2.542193
 H         0.826258        -0.003169        -0.750639
 H         4.295499        -0.342807         0.865008
 H         1.851879         2.381201         0.732666
 H         3.461860         3.101092        -0.080383
