19
Iteration:  3372
 C         0.880761         2.734517        -1.766081
 C         2.023133         1.964930        -1.222776
 C         3.128855         1.395692        -2.319266
 C         3.147452         0.263209        -1.415350
 O         3.757806        -0.965085        -1.719640
 C         1.800675         0.526632        -0.869925
 C         3.040991         0.813744         0.056036
 O         3.407163        -0.111518         1.145201
 C         2.713513         2.237810         0.115236
 H         0.013520         2.983300        -1.017391
 H         1.129112         3.671178        -2.213410
 H         0.553759         2.117251        -2.606275
 H         2.558507         1.323246        -3.261512
 H         4.062650         1.905539        -2.478717
 H         3.523280        -1.521066        -0.922222
 H         1.081168        -0.187427        -0.770965
 H         4.391645         0.073235         1.211953
 H         1.893952         2.517444         0.767082
 H         3.565658         3.032489         0.164791
