19
Iteration:  2399
 C         0.876105         2.865921        -1.738113
 C         1.957993         1.968706        -1.315587
 C         3.087257         1.384284        -2.206756
 C         3.136594         0.211414        -1.279853
 O         3.718964        -0.933156        -1.642793
 C         1.759611         0.453512        -0.854830
 C         3.033403         0.764189         0.041173
 O         3.590621        -0.146436         0.972923
 C         2.695155         2.243411        -0.017644
 H         0.371681         3.452246        -0.965921
 H         1.475660         3.551621        -2.210670
 H         0.075865         2.328574        -2.309853
 H         2.605300         1.136850        -3.126820
 H         4.105052         1.955135        -2.213065
 H         4.490422        -1.255341        -1.130882
 H         0.884895        -0.213320        -0.791947
 H         3.147894        -0.141351         1.834200
 H         2.096760         2.702598         0.788109
 H         3.479461         2.982983        -0.086949
