19
Iteration:   205charge 0 multiplicity 1
 C         0.833391         2.885833        -1.741616
 C         1.917560         1.903993        -1.321888
 C         3.034440         1.349486        -2.346474
 C         3.203365         0.287355        -1.327461
 O         3.816105        -0.849397        -1.744163
 C         1.798074         0.403828        -0.735232
 C         3.019503         0.724435         0.140067
 O         3.482558        -0.116198         1.068482
 C         2.798551         2.252249        -0.006681
 H         0.048975         2.967019        -0.985829
 H         1.257614         3.831376        -1.960946
 H         0.392296         2.518792        -2.665094
 H         2.585105         0.919514        -3.208002
 H         3.972748         1.862874        -2.496991
 H         4.184121        -1.346413        -0.961453
 H         1.098107        -0.276618        -0.415981
 H         2.789163        -0.285823         1.714216
 H         2.086018         2.681006         0.698788
 H         3.791959         2.822791        -0.225479
