19
Iteration:  1359
 C         0.742134         2.896329        -1.618883
 C         1.894911         1.912694        -1.310280
 C         3.066095         1.448610        -2.355636
 C         3.217129         0.219687        -1.427407
 O         3.842693        -1.028134        -1.617841
 C         1.808104         0.368431        -0.787671
 C         2.968552         0.753537         0.069477
 O         3.370587         0.042082         1.166376
 C         2.922714         2.209394        -0.088423
 H         0.091611         3.106071        -0.799576
 H         1.304735         3.702107        -2.085681
 H         0.093836         2.476785        -2.450927
 H         2.616284         1.193529        -3.366532
 H         3.935900         2.105161        -2.348641
 H         4.830276        -0.963869        -1.787546
 H         0.941829        -0.304626        -0.357870
 H         3.431824        -0.917737         0.860321
 H         2.355344         2.715847         0.738145
 H         3.783929         2.888079        -0.328116
