19
Iteration:  3415
 C         0.844009         2.865189        -1.801152
 C         1.937232         1.947129        -1.283681
 C         3.082190         1.431408        -2.229406
 C         3.134348         0.170180        -1.331601
 O         3.810816        -0.885273        -1.699840
 C         1.771597         0.390192        -0.808693
 C         2.976854         0.708586         0.086066
 O         3.463110        -0.054831         1.095962
 C         2.726841         2.247889        -0.009919
 H         0.106882         2.978679        -0.953131
 H         1.405908         3.770495        -1.857287
 H         0.764796         2.560151        -2.823639
 H         2.990536         0.942441        -3.171104
 H         3.937700         2.069232        -2.185594
 H         3.704528        -1.582405        -0.970526
 H         0.893226        -0.115688        -0.908733
 H         4.441535        -0.189141         1.189510
 H         2.243314         2.726432         0.790388
 H         3.681039         2.685050        -0.290448
