19
Iteration:  3765
 C         0.862895         2.986749        -1.736932
 C         1.929398         1.934257        -1.333719
 C         3.044490         1.390635        -2.347790
 C         3.148642         0.174642        -1.370824
 O         3.950292        -0.874189        -1.597733
 C         1.687917         0.405754        -0.740601
 C         2.886990         0.676834         0.022617
 O         3.394398        -0.112204         1.118420
 C         2.861251         2.199124        -0.091798
 H         0.241453         3.069274        -0.846554
 H         1.219500         3.934957        -1.953834
 H         0.369876         2.577106        -2.599702
 H         2.593913         1.027945        -3.253953
 H         3.845449         2.109399        -2.674705
 H         4.193178        -1.422933        -0.780888
 H         0.842133        -0.260832        -0.580233
 H         4.300354         0.279646         1.320831
 H         2.268687         2.447956         0.838398
 H         3.785195         2.729053         0.002219
