19
Iteration:  2018charge 0 multiplicity 1
 C         0.877052         2.988431        -1.578310
 C         1.923585         1.849819        -1.302553
 C         3.090878         1.399219        -2.285897
 C         3.193093         0.191241        -1.425620
 O         3.951784        -1.001765        -1.689871
 C         1.738938         0.398338        -0.789550
 C         2.962294         0.764368         0.019638
 O         3.444203        -0.051287         1.030757
 C         2.739958         2.227769        -0.085811
 H         0.473528         3.295325        -0.583473
 H         1.145976         3.889029        -2.167826
 H         0.054982         2.633874        -2.222216
 H         2.589476         1.060845        -3.233298
 H         4.034917         2.048812        -2.470855
 H         4.037155        -1.355625        -0.772741
 H         0.760198        -0.251288        -0.479545
 H         2.783899         0.002561         1.755221
 H         2.165323         2.681027         0.744270
 H         3.558178         2.935142        -0.042565
