19
Iteration:  2038charge 0 multiplicity 1
 C         0.868099         2.851965        -1.676566
 C         1.949587         1.973217        -1.397637
 C         3.054074         1.358818        -2.320822
 C         3.131336         0.237683        -1.302816
 O         3.833812        -0.842575        -1.709355
 C         1.762152         0.416934        -0.793321
 C         2.964276         0.756993         0.097802
 O         3.518364        -0.174773         1.093055
 C         2.801530         2.243201        -0.036056
 H         0.458744         3.366968        -0.756251
 H         1.235875         3.668652        -2.372737
 H        -0.009566         2.553399        -2.356721
 H         2.802582         1.033805        -3.334324
 H         3.956282         2.075755        -2.337469
 H         4.053708        -1.330933        -0.837076
 H         0.820237        -0.365530        -0.760238
 H         2.913551        -0.396551         1.776464
 H         2.211125         2.689290         0.862599
 H         3.793900         2.844226        -0.259558
