19
Iteration:  3858
 C         0.905085         2.875804        -1.870172
 C         1.980927         1.850443        -1.321069
 C         3.156073         1.480674        -2.242813
 C         3.077552         0.171098        -1.351710
 O         3.790152        -0.935016        -1.765373
 C         1.706266         0.399113        -0.647872
 C         2.953637         0.739828         0.107387
 O         3.495889        -0.070087         1.130683
 C         2.740843         2.219559         0.010366
 H         0.138334         2.987844        -1.067210
 H         1.203305         3.991353        -2.041524
 H         0.520826         2.378500        -2.785476
 H         2.956901         1.326071        -3.370523
 H         4.014395         2.157028        -2.272515
 H         3.782562        -1.485207        -0.975023
 H         0.829128        -0.177657        -0.671986
 H         4.299359         0.413530         1.006697
 H         2.200301         2.561646         0.868055
 H         3.468243         3.010505        -0.126768
