19
Iteration:  1573
 C         0.914676         2.894946        -1.820981
 C         1.857200         1.917036        -1.264856
 C         3.025410         1.445967        -2.240881
 C         3.152538         0.160532        -1.395418
 O         3.772017        -1.036662        -1.705714
 C         1.776615         0.436345        -0.805460
 C         3.078779         0.782348         0.053455
 O         3.528755        -0.111446         1.053642
 C         2.702175         2.259592         0.062959
 H         0.040048         3.110162        -1.166208
 H         1.357130         3.892586        -2.129132
 H         0.509169         2.510521        -2.757394
 H         2.668520         1.517836        -3.284040
 H         3.851741         2.155596        -2.061538
 H         4.155121        -1.417301        -0.845362
 H         0.940700        -0.216903        -0.447247
 H         4.271151         0.446407         1.468661
 H         2.076142         2.421834         0.981418
 H         3.464591         3.103344         0.216056
