19
Iteration:  1582
 C         0.852654         2.913866        -1.901767
 C         1.896630         1.920068        -1.256082
 C         3.070048         1.515655        -2.201361
 C         3.144566         0.263980        -1.426006
 O         3.720311        -1.028554        -1.691315
 C         1.784734         0.397843        -0.706883
 C         3.057029         0.705163         0.041040
 O         3.594514        -0.171623         1.096907
 C         2.664562         2.248912         0.008542
 H         0.063086         3.157114        -1.165004
 H         1.389155         3.890175        -1.963326
 H         0.503366         2.591589        -2.851344
 H         2.852952         1.301662        -3.338481
 H         3.911782         2.287081        -2.188648
 H         4.159930        -1.308415        -0.824720
 H         0.886555        -0.306536        -0.522953
 H         4.193420         0.455533         1.611648
 H         2.063710         2.521077         0.878410
 H         3.530221         2.942431        -0.202298
