19
Iteration:  3751
 C         0.889219         2.988305        -1.764385
 C         1.990762         2.004279        -1.353648
 C         2.930812         1.337747        -2.386392
 C         3.081872         0.220763        -1.451326
 O         3.971223        -0.944264        -1.590922
 C         1.730356         0.346544        -0.839783
 C         2.993233         0.710428         0.062929
 O         3.418446        -0.083389         1.133867
 C         2.777005         2.154293         0.116175
 H        -0.023349         3.123901        -1.084650
 H         1.361314         4.028138        -1.835236
 H         0.323861         2.744538        -2.698545
 H         2.430074         1.075110        -3.360518
 H         3.915154         1.853191        -2.478758
 H         4.185485        -1.054376        -0.670981
 H         0.880458        -0.158714        -0.455209
 H         4.329051         0.102496         1.328574
 H         2.114703         2.727524         0.810174
 H         3.766523         2.771840        -0.229443
