19
Iteration:   954charge 0 multiplicity 1
 C         0.879083         2.825399        -1.741859
 C         2.055902         1.920835        -1.413788
 C         3.086904         1.389207        -2.296804
 C         3.165307         0.277880        -1.309878
 O         3.738136        -1.005581        -1.553682
 C         1.727600         0.456656        -0.850675
 C         2.860985         0.723879         0.143075
 O         3.670388        -0.034566         0.993403
 C         2.663035         2.266357         0.042608
 H         0.094951         3.008701        -0.986176
 H         1.095122         3.911169        -2.015094
 H         0.336433         2.442909        -2.621592
 H         2.677990         1.200809        -3.316129
 H         3.928122         2.188008        -2.287567
 H         4.692789        -1.089395        -1.567455
 H         0.925058        -0.265315        -0.822669
 H         3.251089        -0.696469         1.523806
 H         1.833768         2.544289         0.729608
 H         3.605794         3.001249         0.073748
