19
Iteration:  3057charge 0 multiplicity 1
 C         0.869504         2.881836        -1.784664
 C         1.995300         1.908214        -1.291630
 C         3.121416         1.473340        -2.225443
 C         3.140491         0.196766        -1.386982
 O         3.684607        -1.024234        -1.766130
 C         1.737600         0.353138        -0.807960
 C         2.928596         0.765716         0.156900
 O         3.589790        -0.010924         1.120500
 C         2.800557         2.270688         0.014235
 H         0.048875         3.039416        -0.997251
 H         1.252430         3.829310        -2.170683
 H         0.289978         2.418278        -2.587218
 H         2.760671         1.273904        -3.283568
 H         4.097824         1.907409        -2.080851
 H         4.644260        -0.998880        -1.497186
 H         0.794417        -0.158104        -0.748632
 H         3.105680        -0.779658         1.376065
 H         2.048558         2.799613         0.759711
 H         3.684665         2.960777         0.082124
