19
Iteration:   168
 C         0.831869         2.852354        -1.690683
 C         1.972334         1.978580        -1.267373
 C         3.025674         1.457580        -2.363942
 C         3.129264         0.231383        -1.422419
 O         3.917815        -0.971772        -1.621731
 C         1.712140         0.474561        -0.840934
 C         2.900559         0.674404        -0.027571
 O         3.565649        -0.028986         1.084609
 C         2.780729         2.069749         0.020951
 H         0.106850         3.087679        -0.891590
 H         1.185260         3.859534        -2.040250
 H         0.240580         2.369401        -2.476700
 H         2.652116         1.358544        -3.432705
 H         3.986795         2.000841        -2.557047
 H         4.168758        -1.284190        -0.682843
 H         0.764941        -0.040352        -0.449390
 H         3.323170         0.515558         1.806185
 H         2.188477         2.465859         0.850725
 H         3.662367         2.736841         0.178468
