19
Iteration:  4225
 C         0.941282         2.821825        -1.747641
 C         1.940253         1.874365        -1.252863
 C         3.095373         1.451126        -2.245893
 C         3.161119         0.229649        -1.390535
 O         3.899585        -0.940937        -1.579605
 C         1.756498         0.446581        -0.858223
 C         2.918976         0.698420         0.065108
 O         3.313701        -0.037678         1.143477
 C         2.791963         2.220074        -0.016900
 H         0.138646         2.854571        -0.963708
 H         1.240257         3.843509        -1.976428
 H         0.464718         2.488544        -2.705017
 H         2.722709         1.031183        -3.182910
 H         3.768667         2.291895        -2.538423
 H         3.938058        -1.342616        -2.447067
 H         0.944217        -0.179540        -0.708717
 H         4.261843         0.047540         1.162840
 H         2.331854         2.868946         0.749403
 H         3.743444         2.773328        -0.416321
