19
Iteration:   518
 C         0.839126         2.892994        -1.713017
 C         1.914618         1.969830        -1.313694
 C         2.970863         1.395003        -2.325672
 C         3.157664         0.220807        -1.404433
 O         3.908944        -0.940506        -1.584666
 C         1.765946         0.388977        -0.850373
 C         2.914049         0.763031         0.063253
 O         3.536146        -0.127927         1.071489
 C         2.845787         2.237171        -0.029543
 H         0.288227         3.098467        -0.786991
 H         1.173507         3.873615        -1.957315
 H         0.148199         2.504890        -2.430460
 H         2.439199         1.391916        -3.314959
 H         3.885996         2.113359        -2.530045
 H         4.380515        -0.929864        -0.671165
 H         0.903177        -0.381944        -0.913822
 H         2.850553        -0.474465         1.707739
 H         2.318140         2.749693         0.866979
 H         3.839754         2.658729        -0.265510
