19
Iteration:  3434
 C         0.967688         2.904546        -1.716316
 C         1.950686         1.852950        -1.370349
 C         3.050292         1.383655        -2.346778
 C         3.173506         0.223626        -1.378389
 O         3.899603        -0.880232        -1.680060
 C         1.707630         0.405108        -0.761224
 C         2.871275         0.720641         0.127695
 O         3.450553        -0.096918         1.116309
 C         2.748116         2.266233        -0.003059
 H         0.175043         2.888268        -0.931266
 H         1.424849         3.931510        -1.861974
 H         0.518761         2.664113        -2.749500
 H         2.402810         1.265132        -3.210947
 H         4.013943         1.984922        -2.500551
 H         3.599923        -1.607496        -1.057105
 H         0.925915        -0.347866        -0.536733
 H         4.402436         0.193163         1.253533
 H         1.911975         2.623504         0.675866
 H         3.629985         2.883478        -0.064299
