19
Iteration:   247
 C         0.851842         2.865034        -1.710343
 C         2.002958         1.988279        -1.223730
 C         3.068553         1.401718        -2.333287
 C         3.116309         0.185845        -1.474928
 O         3.801825        -1.000913        -1.653009
 C         1.783648         0.385820        -0.869201
 C         2.924526         0.740328         0.049493
 O         3.569917         0.026703         1.062060
 C         2.767641         2.219702         0.116062
 H         0.005701         2.960145        -1.009375
 H         1.208232         3.802481        -2.090089
 H         0.495110         2.326409        -2.584929
 H         2.468153         1.159915        -3.234042
 H         3.922546         2.123375        -2.477099
 H         4.376641        -1.075109        -0.839745
 H         0.967946        -0.121473        -0.735487
 H         2.892438        -0.447887         1.528002
 H         2.053650         2.475168         0.866198
 H         3.721047         2.871959        -0.004340
