19
Iteration:  2704charge 0 multiplicity 1
 C         0.964176         2.859286        -1.731655
 C         1.937599         1.929810        -1.286538
 C         3.008504         1.350534        -2.320095
 C         3.182781         0.260065        -1.305792
 O         3.723939        -0.939444        -1.786528
 C         1.782573         0.505193        -0.775274
 C         2.985570         0.698328         0.126765
 O         3.560605        -0.043975         1.114284
 C         2.751333         2.197679        -0.035114
 H         0.364986         3.230504        -0.900090
 H         1.461243         3.701693        -2.131374
 H         0.213236         2.471293        -2.474336
 H         2.651734         0.916122        -3.306197
 H         3.920621         2.064946        -2.476251
 H         4.036590        -1.439894        -1.034410
 H         1.041914        -0.349726        -0.810421
 H         2.877477        -0.253777         1.808647
 H         2.268249         2.737223         0.829206
 H         3.502980         2.973924        -0.204084
