19
Iteration:  2471charge 0 multiplicity 1
 C         0.883246         2.948584        -1.658557
 C         1.953284         1.939346        -1.377802
 C         3.069152         1.387606        -2.336579
 C         3.195349         0.245455        -1.408658
 O         3.730301        -1.035823        -1.749446
 C         1.803084         0.371827        -0.786645
 C         2.972643         0.767042         0.133969
 O         3.519385         0.000022         1.169740
 C         2.789838         2.222972        -0.060998
 H         0.074993         2.619808        -1.011254
 H         1.132561         4.065338        -1.465425
 H         0.402645         2.673029        -2.585590
 H         2.613482         0.931621        -3.262605
 H         3.918408         1.981932        -2.390768
 H         4.380923        -1.265356        -1.066161
 H         0.824397        -0.081056        -0.362589
 H         3.000458        -0.785887         1.223906
 H         2.152916         2.823301         0.680853
 H         3.747389         2.944717         0.068147
