19
Iteration:   217charge 0 multiplicity 1
 C         0.801116         2.931296        -1.726171
 C         1.926570         1.847915        -1.326136
 C         3.080959         1.433139        -2.286340
 C         3.224136         0.245755        -1.314520
 O         3.801204        -0.909243        -1.737828
 C         1.789691         0.432151        -0.636847
 C         3.023803         0.769128         0.058290
 O         3.516081        -0.145819         1.122433
 C         2.773187         2.210109        -0.155555
 H        -0.071091         3.133729        -1.110867
 H         1.232671         3.888349        -1.959550
 H         0.392492         2.548104        -2.669551
 H         2.982481         1.019131        -3.242202
 H         3.697611         2.307653        -2.420611
 H         4.178799        -1.304030        -0.981213
 H         0.929985        -0.231411        -0.379274
 H         2.716601        -0.674861         1.489546
 H         2.125263         2.626610         0.656004
 H         3.551956         3.058840        -0.274067
