19
Iteration:  3105charge 0 multiplicity 1
 C         0.826960         2.911967        -1.767204
 C         1.953024         1.993171        -1.292389
 C         3.010219         1.488008        -2.296339
 C         3.133682         0.169840        -1.434943
 O         3.856826        -1.050039        -1.534455
 C         1.778360         0.477526        -0.865721
 C         3.004332         0.730033        -0.021667
 O         3.533065        -0.118273         0.998972
 C         2.797664         2.193366         0.089907
 H         0.076364         3.030906        -1.038571
 H         1.313563         3.906835        -1.981917
 H         0.280329         2.658909        -2.715993
 H         2.440411         1.181970        -3.161507
 H         3.824964         2.310676        -2.371638
 H         3.930679        -1.214752        -0.591933
 H         1.027788        -0.293772        -0.675933
 H         2.991229         0.051587         1.832433
 H         2.365544         2.600907         1.019395
 H         3.706409         2.811422        -0.078566
