19
Iteration:   107
 C         0.840614         2.855742        -1.814171
 C         1.980624         1.994046        -1.252662
 C         2.978568         1.398010        -2.336998
 C         3.085910         0.234101        -1.423439
 O         3.748285        -0.945844        -1.613764
 C         1.786798         0.429490        -0.833401
 C         3.079347         0.747050         0.026398
 O         3.607770        -0.026687         1.099084
 C         2.761506         2.139924         0.115475
 H        -0.047078         2.957592        -1.126623
 H         1.272468         3.797956        -2.176280
 H         0.484570         2.367512        -2.762257
 H         2.546250         1.243224        -3.311241
 H         3.948263         1.961398        -2.445569
 H         4.602324        -0.962339        -1.114790
 H         1.048379        -0.247418        -0.862841
 H         2.865936        -0.516561         1.396162
 H         2.107768         2.349549         1.062321
 H         3.556749         2.958762         0.417808
