19
Iteration:   203
 C         0.840385         2.871624        -1.748887
 C         1.916600         1.920852        -1.318415
 C         3.027048         1.344106        -2.347795
 C         3.191056         0.286814        -1.325908
 O         3.826181        -0.854672        -1.744955
 C         1.797993         0.400178        -0.747330
 C         3.011028         0.724992         0.131541
 O         3.485172        -0.116125         1.071298
 C         2.800836         2.262570         0.011351
 H         0.088985         2.917451        -0.952023
 H         1.291025         3.816907        -1.950536
 H         0.363131         2.541485        -2.659615
 H         2.493441         0.935002        -3.206597
 H         3.989346         1.848382        -2.508754
 H         4.189306        -1.358060        -0.952002
 H         1.104007        -0.254756        -0.492563
 H         2.800624        -0.216774         1.718371
 H         2.125683         2.677006         0.734483
 H         3.796696         2.823287        -0.196258
