19
Iteration:  1282charge 0 multiplicity 1
 C         0.857992         2.873258        -1.845292
 C         1.856111         1.922991        -1.251708
 C         3.037149         1.501808        -2.233624
 C         3.321545         0.254081        -1.407486
 O         3.677372        -1.077672        -1.581129
 C         1.781118         0.417339        -0.737054
 C         3.037570         0.664361         0.004414
 O         3.576490         0.055511         1.098306
 C         2.682314         2.242083         0.022986
 H        -0.038222         3.029342        -1.277589
 H         1.394046         3.825377        -2.034260
 H         0.663799         2.365288        -2.830684
 H         2.744715         1.305949        -3.261475
 H         3.743535         2.264619        -2.251906
 H         4.615772        -1.192450        -1.802894
 H         0.847288        -0.203331        -0.515315
 H         3.734072        -0.862883         0.888030
 H         2.008070         2.348221         0.909744
 H         3.574587         2.893129        -0.099051
