19
Iteration:  3657charge 0 multiplicity 1
 C         0.851515         2.747654        -1.772838
 C         2.026974         1.942510        -1.275949
 C         3.102930         1.411272        -2.358195
 C         3.168140         0.245927        -1.379658
 O         3.766975        -0.910782        -1.750059
 C         1.806064         0.455135        -0.770865
 C         3.047743         0.738216         0.044177
 O         3.317820        -0.049051         1.180010
 C         2.810481         2.295685         0.085798
 H         0.197818         3.029517        -0.915692
 H         1.006623         3.709813        -2.304059
 H         0.222201         2.050315        -2.353336
 H         2.726674         1.174978        -3.349640
 H         4.119670         1.803298        -2.521249
 H         3.817859        -1.561390        -0.973325
 H         0.967290        -0.218132        -0.792592
 H         4.265571        -0.389939         1.231077
 H         2.102509         2.740076         0.860596
 H         3.684660         2.916354        -0.013740
