19
Iteration:  3626charge 0 multiplicity 1
 C         0.835551         2.903606        -1.739099
 C         1.942271         1.873258        -1.311833
 C         2.989404         1.426950        -2.347388
 C         3.232084         0.249201        -1.348792
 O         3.903867        -0.967861        -1.676862
 C         1.776479         0.413402        -0.767279
 C         3.025083         0.722227         0.043715
 O         3.345388        -0.119708         1.115398
 C         2.814212         2.312102         0.016496
 H         0.246173         3.189035        -0.876659
 H         1.179291         3.880974        -2.230261
 H         0.184243         2.477038        -2.499192
 H         2.696705         0.984701        -3.300718
 H         3.925179         1.967865        -2.424413
 H         3.580922        -1.674611        -1.146591
 H         0.819004        -0.029947        -0.583191
 H         4.200140         0.024540         1.494982
 H         2.166634         2.893253         0.673157
 H         3.870498         2.802862        -0.057750
