19
Iteration:  3088
 C         0.871961         2.903314        -1.761658
 C         1.999434         1.962452        -1.237200
 C         3.035030         1.475536        -2.356863
 C         3.265184         0.288860        -1.382097
 O         3.723195        -1.015106        -1.566352
 C         1.717282         0.466186        -0.804672
 C         3.018304         0.681046         0.042893
 O         3.569377        -0.083578         1.008889
 C         2.769730         2.197220         0.013197
 H        -0.006166         3.021604        -1.022625
 H         1.112306         3.864650        -2.169142
 H         0.607139         2.331041        -2.641334
 H         2.372814         1.197533        -3.228022
 H         3.958860         1.968182        -2.553520
 H         4.248299        -1.278435        -0.811833
 H         0.788541        -0.026484        -0.815360
 H         2.947411        -0.474539         1.695551
 H         1.914151         2.187861         0.737152
 H         3.500989         3.020489         0.178908
