19
Iteration:  2427charge 0 multiplicity 1
 C         0.902531         2.915639        -1.827887
 C         1.983896         2.000288        -1.291950
 C         3.013354         1.486063        -2.305526
 C         3.120925         0.193022        -1.406421
 O         3.716734        -0.975615        -1.660688
 C         1.768279         0.383172        -0.810200
 C         2.932021         0.645444         0.092479
 O         3.629954         0.004882         1.117871
 C         2.767373         2.139694         0.068961
 H         0.083237         3.199112        -1.163836
 H         1.552758         3.857189        -2.134788
 H         0.418168         2.474524        -2.720230
 H         2.361017         1.273997        -3.199317
 H         3.841472         2.133828        -2.468953
 H         4.609311        -1.032380        -1.312252
 H         0.895638        -0.258389        -0.485224
 H         3.142968        -0.567928         1.709330
 H         2.082031         2.520959         0.907647
 H         3.845462         2.697764        -0.064878
