19
Iteration:    24
 C         0.872461         2.832414        -1.607248
 C         2.007212         1.954173        -1.259706
 C         3.003324         1.509683        -2.403662
 C         3.200112         0.218141        -1.568846
 O         3.815996        -1.172391        -1.553865
 C         1.861855         0.379578        -0.916277
 C         2.920116         0.724688         0.051085
 O         3.416736         0.123877         1.150286
 C         2.772889         2.270160         0.092555
 H         0.252527         3.039789        -0.775905
 H         1.248628         3.795200        -1.953108
 H         0.281413         2.367330        -2.367154
 H         2.409581         1.363632        -3.328523
 H         3.813593         2.184960        -2.575865
 H         4.815660        -0.996303        -1.718250
 H         0.910965        -0.288051        -0.842040
 H         3.362398        -0.871739         1.028978
 H         2.047996         2.570284         0.820508
 H         3.715641         2.872582         0.136308
