19
Iteration:   564
 C         0.812545         2.810156        -1.693700
 C         2.002892         1.966423        -1.340972
 C         3.038768         1.408770        -2.297705
 C         3.133079         0.188544        -1.361973
 O         3.878460        -0.932292        -1.705826
 C         1.821635         0.449976        -0.819055
 C         3.008856         0.716951         0.075254
 O         3.482867        -0.112401         1.076722
 C         2.796951         2.338449         0.041152
 H         0.119567         2.964339        -0.842594
 H         0.981042         3.822527        -1.993163
 H         0.196077         2.309718        -2.474039
 H         2.599907         0.940824        -3.237630
 H         3.959899         1.936848        -2.635671
 H         3.937537        -1.485851        -0.866532
 H         0.815453        -0.249814        -0.951201
 H         2.897043         0.022933         1.833039
 H         1.960317         2.794171         0.644140
 H         3.627274         3.035347        -0.034706
