19
Iteration:  2047
 C         0.843133         2.874326        -1.794054
 C         1.984843         1.921857        -1.312583
 C         3.030794         1.420380        -2.276931
 C         3.119288         0.287060        -1.375466
 O         3.829247        -0.872370        -1.705392
 C         1.709249         0.466392        -0.828935
 C         2.972627         0.718259         0.133707
 O         3.569318        -0.192210         1.117344
 C         2.829410         2.234106        -0.006367
 H         0.318637         3.263749        -0.883115
 H         1.132097         3.751089        -2.390631
 H         0.151117         2.147102        -2.361542
 H         2.571148         0.976333        -3.133746
 H         3.921142         1.978131        -2.551842
 H         4.071748        -1.272563        -0.805374
 H         0.801371        -0.234742        -0.861683
 H         2.835830        -0.331606         1.693302
 H         2.381393         2.786231         0.858205
 H         3.812636         2.829264        -0.015412
