19
Iteration:  1442
 C         0.866983         2.853764        -1.870063
 C         1.834691         1.878782        -1.268181
 C         3.117282         1.468759        -2.199035
 C         3.120649         0.258797        -1.343459
 O         3.692989        -1.018141        -1.602755
 C         1.761493         0.371234        -0.810328
 C         2.940581         0.741734         0.079343
 O         3.645542         0.027510         1.120815
 C         2.789463         2.195069         0.042392
 H         0.129763         3.044600        -1.076735
 H         1.353580         3.856006        -1.828580
 H         0.470712         2.579335        -2.844504
 H         2.902523         1.398568        -3.193720
 H         3.918567         2.170566        -2.124392
 H         4.203584        -1.010582        -2.442257
 H         0.830712        -0.328030        -0.794732
 H         4.100202        -0.727721         0.685101
 H         2.190273         2.730361         0.770865
 H         3.543655         2.844039        -0.375099
