19
Iteration:  1379charge 0 multiplicity 1
 C         0.875527         2.865881        -1.740866
 C         1.932345         1.920418        -1.311116
 C         2.958705         1.418447        -2.386439
 C         3.216938         0.308684        -1.345284
 O         3.742511        -0.953274        -1.563644
 C         1.776029         0.436621        -0.829799
 C         3.080860         0.675960         0.112736
 O         3.502044        -0.071544         1.167802
 C         2.760040         2.262469        -0.072155
 H         0.341799         2.952885        -0.805545
 H         1.263420         3.862501        -2.034159
 H         0.094189         2.525843        -2.436084
 H         2.397257         0.973550        -3.336949
 H         3.782668         2.191617        -2.686225
 H         4.726482        -0.883056        -1.389428
 H         1.011792        -0.433416        -1.043172
 H         3.705646        -0.998030         0.936314
 H         2.161047         2.580640         0.793074
 H         3.633566         2.893266        -0.162515
