19
Iteration:  4407charge 0 multiplicity 1
 C         0.856744         2.842858        -1.676275
 C         2.004719         1.927510        -1.328450
 C         3.199486         1.450732        -2.353416
 C         3.108293         0.192101        -1.404294
 O         3.981630        -0.861078        -1.577535
 C         1.804956         0.341339        -0.862472
 C         2.949437         0.725119         0.076782
 O         3.273236        -0.004066         1.153056
 C         2.723443         2.229692         0.003961
 H         0.235188         2.809807        -0.753043
 H         1.262180         3.823907        -1.983526
 H         0.148596         2.482847        -2.419161
 H         2.921520         0.915608        -3.200839
 H         3.920865         2.199168        -2.669147
 H         3.510765        -1.656532        -1.960734
 H         0.932396        -0.242122        -0.750869
 H         4.065344        -0.617277         1.003762
 H         1.915133         2.583075         0.615299
 H         3.486534         2.967263         0.065436
