19
Iteration:  2425
 C         0.901920         2.923461        -1.833114
 C         1.975818         1.988039        -1.315514
 C         3.036431         1.480844        -2.309407
 C         3.125730         0.193546        -1.403510
 O         3.713383        -0.970359        -1.661610
 C         1.761397         0.391589        -0.792256
 C         2.920525         0.632851         0.103985
 O         3.630056        -0.010292         1.106528
 C         2.761407         2.153381         0.063184
 H         0.095689         3.230171        -1.150900
 H         1.509644         3.807821        -2.119637
 H         0.419030         2.453212        -2.630484
 H         2.367553         1.272772        -3.181811
 H         3.792375         2.193372        -2.471090
 H         4.644587        -1.047807        -1.309092
 H         0.944534        -0.253607        -0.518088
 H         3.226609        -0.591144         1.800039
 H         2.149276         2.631644         0.912918
 H         3.795721         2.755058         0.002880
