19
Iteration:  4949
 C         0.953501         2.852241        -1.766302
 C         1.977940         1.958931        -1.279776
 C         2.983387         1.359445        -2.330163
 C         3.172867         0.259805        -1.345578
 O         3.974711        -0.886675        -1.532382
 C         1.606770         0.423474        -0.776972
 C         2.782199         0.691594         0.043070
 O         3.605746        -0.128600         0.926297
 C         2.718521         2.190922         0.049521
 H         0.268443         3.268204        -1.038472
 H         1.535649         3.721925        -2.135171
 H         0.444191         2.574771        -2.714806
 H         2.348608         1.307635        -3.174668
 H         3.822526         1.907769        -2.743876
 H         4.540344        -1.154488        -0.744096
 H         0.632201        -0.164125        -0.781169
 H         3.453295         0.171875         1.865218
 H         2.003229         2.692323         0.715381
 H         3.566595         3.000485        -0.062462
