19
Iteration:  3951
 C         0.815489         2.864253        -1.687820
 C         1.967223         1.924627        -1.404252
 C         3.087702         1.391143        -2.333693
 C         3.078281         0.116442        -1.410136
 O         3.933875        -0.976607        -1.690283
 C         1.740792         0.558484        -0.802718
 C         2.914983         0.747458         0.093509
 O         3.395780        -0.038684         1.099108
 C         2.884939         2.177061         0.061997
 H         0.157019         3.031416        -0.824335
 H         0.939921         3.835913        -2.134783
 H         0.295750         2.209901        -2.434326
 H         2.812112         1.212606        -3.309205
 H         3.987841         2.031172        -2.382646
 H         4.074104        -1.469217        -0.861150
 H         0.923825        -0.088598        -0.627938
 H         3.952504         0.526093         1.699522
 H         2.212577         2.700028         0.752515
 H         3.734513         2.824252        -0.011937
