19
Iteration:  1961
 C         0.886842         2.848858        -1.777387
 C         1.922318         1.883047        -1.269152
 C         3.100482         1.424760        -2.212090
 C         3.157640         0.232715        -1.277937
 O         3.742083        -0.957508        -1.730143
 C         1.730565         0.429339        -0.806131
 C         2.952630         0.772777         0.146319
 O         3.594618        -0.138776         0.988695
 C         2.797966         2.313109        -0.003832
 H        -0.123861         2.780882        -1.307239
 H         1.133977         3.914962        -1.735159
 H         0.559649         2.632546        -2.862746
 H         2.605321         1.212229        -3.156325
 H         4.015162         2.130499        -2.408399
 H         4.426035        -1.050121        -1.063453
 H         0.883965        -0.286203        -0.782635
 H         3.120965        -0.270378         1.843203
 H         1.977784         2.681753         0.534495
 H         3.675856         2.861897        -0.181775
