19
Iteration:  3650
 C         0.836346         2.790443        -1.764678
 C         2.018982         1.923183        -1.271807
 C         3.101172         1.392645        -2.381693
 C         3.160568         0.260132        -1.362175
 O         3.803001        -0.939798        -1.740922
 C         1.823361         0.500051        -0.794537
 C         3.047439         0.729453         0.122720
 O         3.318813        -0.109516         1.188921
 C         2.770404         2.328090         0.011205
 H         0.282180         3.065263        -0.891750
 H         0.883530         3.774451        -2.378845
 H         0.258846         2.104583        -2.379828
 H         2.526541         1.361188        -3.350864
 H         4.067303         1.897282        -2.502100
 H         3.812101        -1.691676        -1.093269
 H         1.099237        -0.296433        -0.708645
 H         4.290994        -0.274673         1.276583
 H         2.228417         2.678920         0.847121
 H         3.736339         3.012488        -0.076743
