19
Iteration:  3500
 C         0.827302         2.780399        -1.746101
 C         2.065953         1.925990        -1.324700
 C         3.115921         1.412409        -2.268843
 C         3.162769         0.256735        -1.416846
 O         3.793182        -0.912494        -1.711087
 C         1.709538         0.458204        -0.784965
 C         2.915202         0.735222         0.100142
 O         3.414088        -0.166918         1.153071
 C         2.831882         2.283774        -0.034623
 H         0.236861         3.141371        -0.848090
 H         1.231585         3.701848        -2.214270
 H        -0.035225         2.414247        -2.381990
 H         2.712627         1.161638        -3.290434
 H         4.041728         2.127431        -2.320375
 H         4.282533        -1.297666        -1.003201
 H         0.874029        -0.204721        -0.797319
 H         4.159111         0.263084         1.577002
 H         2.045264         2.902759         0.633178
 H         3.826086         2.748367        -0.100629
