19
Iteration:  1081charge 0 multiplicity 1
 C         0.882324         2.944646        -1.792533
 C         1.898460         1.895927        -1.278543
 C         3.010330         1.389668        -2.285894
 C         3.202323         0.211574        -1.385939
 O         3.873842        -0.911280        -1.525929
 C         1.722475         0.402365        -0.824012
 C         2.887285         0.714637         0.082799
 O         3.583275        -0.102090         0.955110
 C         2.736844         2.198161        -0.025621
 H         0.252170         3.090382        -0.873663
 H         1.310265         3.892563        -2.199371
 H         0.207832         2.465920        -2.495429
 H         2.526775         1.067555        -3.258760
 H         3.834947         2.013937        -2.425051
 H         4.599858        -0.920242        -0.832932
 H         0.874225        -0.285722        -0.832291
 H         3.394384         0.299544         1.845927
 H         2.177983         2.578551         0.898486
 H         3.668356         2.848581         0.033032
