19
Iteration:   214charge 0 multiplicity 1
 C         0.803743         2.930905        -1.723022
 C         1.941190         1.840093        -1.321523
 C         3.068055         1.408311        -2.295328
 C         3.230696         0.252898        -1.321343
 O         3.793030        -0.875727        -1.742982
 C         1.782865         0.420811        -0.649593
 C         3.021257         0.774515         0.080883
 O         3.498190        -0.142912         1.106689
 C         2.774467         2.194822        -0.126696
 H        -0.089858         3.176109        -1.135807
 H         1.167023         3.898394        -1.960753
 H         0.439412         2.509194        -2.637470
 H         2.980029         0.938830        -3.285571
 H         3.794809         2.234883        -2.516447
 H         4.193268        -1.326322        -0.931213
 H         1.097825        -0.178180        -0.356075
 H         2.789152        -0.601036         1.563651
 H         2.146336         2.657585         0.584536
 H         3.599053         3.046188        -0.250232
