19
Iteration:  1051
 C         0.874158         2.879625        -1.697110
 C         1.876563         1.862699        -1.299767
 C         3.038900         1.429014        -2.373319
 C         3.176966         0.193388        -1.471359
 O         3.986269        -0.934753        -1.636996
 C         1.733710         0.434361        -0.773995
 C         2.916427         0.685636        -0.008653
 O         3.467791        -0.025029         1.160341
 C         2.804432         2.215326        -0.040747
 H         0.287449         3.191101        -0.807546
 H         1.139849         3.883100        -2.124888
 H         0.146698         2.464345        -2.362382
 H         2.532857         1.252708        -3.376125
 H         3.916871         2.123441        -2.250977
 H         3.997577        -1.572995        -0.956436
 H         0.772559        -0.149870        -0.514372
 H         3.260890         0.402387         1.978531
 H         2.165456         2.516562         0.763144
 H         3.708523         2.768034        -0.134272
