19
Iteration:  4434charge 0 multiplicity 1
 C         0.810344         2.830869        -1.833116
 C         1.955824         1.968881        -1.269496
 C         3.064402         1.473300        -2.275644
 C         3.230519         0.266826        -1.351819
 O         3.988462        -0.937163        -1.476227
 C         1.769416         0.460323        -0.908364
 C         2.877936         0.660179         0.091884
 O         3.411153        -0.067050         1.100172
 C         2.786839         2.225212         0.026893
 H         0.258983         2.846689        -0.873185
 H         1.112219         3.843108        -2.124869
 H         0.105787         2.344202        -2.570503
 H         2.821680         0.978175        -3.335155
 H         3.911771         2.169605        -2.555727
 H         3.683418        -1.326237        -2.343873
 H         0.846453        -0.156451        -0.967767
 H         3.490467        -1.065457         1.000309
 H         2.061850         2.750350         0.714129
 H         3.617099         2.989171        -0.056782
