19
Iteration:  1667charge 0 multiplicity 1
 C         0.856295         2.877919        -1.594709
 C         1.926059         1.919755        -1.279446
 C         3.042606         1.392381        -2.360850
 C         3.288882         0.262473        -1.316000
 O         3.824867        -0.958761        -1.714238
 C         1.751855         0.416643        -0.827590
 C         2.975128         0.746773         0.065019
 O         3.442235        -0.043854         1.162368
 C         2.809566         2.219451        -0.130785
 H         0.328857         3.296040        -0.690022
 H         1.248125         3.823336        -2.049173
 H         0.175636         2.639628        -2.441912
 H         2.553301         0.871882        -3.224181
 H         3.743140         2.160362        -2.547734
 H         4.137771        -1.265565        -0.877474
 H         0.957763        -0.423801        -0.866630
 H         2.964902        -0.850315         1.087775
 H         2.325025         2.879410         0.636780
 H         3.730295         2.814964        -0.247372
