19
Iteration:  2316charge 0 multiplicity 1
 C         0.885799         2.920627        -1.696421
 C         1.910928         1.953386        -1.307558
 C         3.026177         1.373667        -2.283331
 C         3.135959         0.131263        -1.433875
 O         3.843153        -1.005596        -1.766401
 C         1.760974         0.417877        -0.767169
 C         3.049971         0.731811         0.114105
 O         3.479626        -0.087688         1.135819
 C         2.781210         2.329071        -0.022382
 H         0.027524         2.884992        -0.981313
 H         1.323060         3.993024        -1.739690
 H         0.627819         2.839437        -2.709048
 H         2.671330         1.236179        -3.351721
 H         3.943054         1.906100        -2.412376
 H         4.611927        -1.103652        -1.118992
 H         0.824601        -0.102550        -0.529555
 H         2.743225        -0.079107         1.822185
 H         2.071395         2.552242         0.703655
 H         3.621207         2.992660        -0.222443
