19
Iteration:   742charge 0 multiplicity 1
 C         0.820108         2.892161        -1.843766
 C         1.926531         1.952312        -1.183687
 C         3.002771         1.481662        -2.311516
 C         3.150876         0.228452        -1.388996
 O         3.846828        -0.980837        -1.734979
 C         1.807240         0.336412        -0.844954
 C         3.014969         0.676122         0.096265
 O         3.510264        -0.040152         1.149070
 C         2.821757         2.240734         0.056606
 H        -0.051984         3.123064        -1.209939
 H         1.353515         3.860170        -2.044290
 H         0.478006         2.288750        -2.730793
 H         2.579623         1.182788        -3.328314
 H         3.815250         2.186154        -2.602324
 H         4.028382        -1.375401        -0.808400
 H         0.943173        -0.450190        -0.665614
 H         2.966110         0.155982         1.905752
 H         2.185176         2.717024         0.851486
 H         3.703889         2.877388        -0.336915
