19
Iteration:  2024
 C         0.845680         2.987298        -1.613624
 C         1.951167         1.818753        -1.313835
 C         3.109837         1.394351        -2.316081
 C         3.176619         0.219144        -1.387081
 O         3.907776        -0.938413        -1.683954
 C         1.747860         0.402813        -0.754832
 C         2.939308         0.726695         0.075584
 O         3.454669        -0.075546         1.011855
 C         2.761951         2.236321        -0.094266
 H         0.537605         3.342278        -0.621897
 H         1.296088         3.859385        -2.111732
 H        -0.032337         2.504694        -2.132020
 H         2.748641         1.085173        -3.280901
 H         4.006093         1.973642        -2.419312
 H         4.113506        -1.488570        -0.935034
 H         0.967481        -0.253140        -0.488440
 H         2.746636        -0.095996         1.728737
 H         2.049309         2.775015         0.597056
 H         3.624096         3.019556        -0.127300
