19
Iteration:  1503
 C         0.803151         2.879922        -1.639526
 C         1.984995         1.916180        -1.286928
 C         3.006024         1.438689        -2.316267
 C         3.218910         0.221758        -1.411728
 O         3.966900        -0.957607        -1.624545
 C         1.773572         0.410018        -0.710839
 C         2.991815         0.756706         0.053003
 O         3.253735        -0.031329         1.080537
 C         2.893290         2.195713        -0.093414
 H         0.155002         3.097587        -0.744422
 H         1.087849         3.833866        -2.101867
 H         0.122152         2.405835        -2.401398
 H         2.571359         1.051841        -3.378254
 H         3.977761         2.053457        -2.278023
 H         3.333313        -1.695802        -1.838870
 H         1.089723        -0.334741        -0.430995
 H         4.245786        -0.154768         1.004477
 H         2.347289         2.759721         0.693251
 H         3.717567         2.907312        -0.329349
