19
Iteration:  4396charge 0 multiplicity 1
 C         0.858777         2.851803        -1.691570
 C         1.977794         1.925756        -1.350493
 C         3.061153         1.432170        -2.312694
 C         3.271549         0.232643        -1.425707
 O         4.002465        -0.940512        -1.589898
 C         1.794716         0.374378        -0.895263
 C         2.931318         0.709556         0.031337
 O         3.259685        -0.013791         1.186209
 C         2.726921         2.236765         0.021935
 H         0.224102         3.030143        -0.794460
 H         1.177568         3.903770        -1.844186
 H         0.255275         2.536676        -2.543233
 H         2.662371         1.344204        -3.291495
 H         4.030617         1.900907        -2.212079
 H         3.440670        -1.704826        -1.898262
 H         0.980330        -0.273063        -0.724003
 H         4.250119        -0.133228         1.159780
 H         2.032726         2.511825         0.797383
 H         3.525227         2.924460        -0.099339
