19
Iteration:  2088charge 0 multiplicity 1
 C         0.886216         2.797133        -1.838085
 C         1.939942         1.942365        -1.229895
 C         3.113890         1.468528        -2.227871
 C         3.090932         0.181827        -1.396215
 O         3.698840        -0.959392        -1.649742
 C         1.767738         0.427076        -0.776066
 C         3.066259         0.743322        -0.006027
 O         3.595754        -0.102772         0.972581
 C         2.754638         2.252033         0.113729
 H         0.105251         3.007575        -1.116736
 H         1.147668         3.790931        -2.163173
 H         0.497125         2.482104        -2.790992
 H         2.662869         1.528701        -3.247353
 H         4.025591         2.062737        -2.219719
 H         4.279536        -1.191223        -0.947037
 H         0.958453        -0.183471        -0.467573
 H         2.999009        -0.214689         1.756712
 H         1.981973         2.745116         0.817052
 H         3.437662         3.138769         0.147532
