19
Iteration:  4899charge 0 multiplicity 1
 C         0.885959         2.848779        -1.748741
 C         1.909189         1.950142        -1.275385
 C         3.049521         1.524142        -2.317987
 C         3.237498         0.258630        -1.408180
 O         3.832117        -1.029665        -1.654514
 C         1.832624         0.397586        -0.797341
 C         2.967839         0.739122         0.037138
 O         3.479210        -0.020414         1.138147
 C         2.773944         2.199830         0.009484
 H         0.005008         2.947529        -1.041226
 H         1.137341         3.800910        -2.287519
 H         0.359687         2.221696        -2.488752
 H         2.567461         1.051607        -3.267342
 H         3.706472         2.410570        -2.642045
 H         4.146629        -1.356475        -0.818698
 H         0.965810        -0.205600        -0.736483
 H         2.795598        -0.561272         1.505389
 H         2.133302         2.563175         0.843651
 H         3.571802         2.840103        -0.175411
