19
Iteration:   147
 C         0.822905         2.926430        -1.690167
 C         1.884658         1.857908        -1.345729
 C         3.117944         1.415662        -2.208425
 C         3.103259         0.238977        -1.335450
 O         3.800317        -0.962385        -1.620375
 C         1.752242         0.347376        -0.854020
 C         2.995740         0.759442         0.052962
 O         3.580131        -0.101065         0.974043
 C         2.750283         2.244947        -0.025340
 H         0.226621         3.097728        -0.791550
 H         1.244721         3.864177        -2.067028
 H         0.096084         2.540354        -2.393880
 H         2.931831         1.191755        -3.286092
 H         4.001119         2.070436        -2.258075
 H         4.375143        -1.076335        -0.857013
 H         0.959557        -0.370388        -1.074951
 H         3.510536         0.230529         1.918105
 H         2.143125         2.777602         0.699493
 H         3.538475         3.117819        -0.064631
