19
Iteration:  2059charge 0 multiplicity 1
 C         0.839337         2.811848        -1.842099
 C         1.973858         2.032000        -1.186540
 C         3.010790         1.478275        -2.325059
 C         3.164264         0.219247        -1.367358
 O         3.819278        -0.933886        -1.676222
 C         1.749564         0.517335        -0.791885
 C         2.945035         0.635756         0.068217
 O         3.556296        -0.121760         1.061346
 C         2.875201         2.206094         0.100610
 H         0.020614         3.215172        -1.164378
 H         1.254851         3.627627        -2.483632
 H         0.248943         2.162399        -2.625549
 H         2.387873         1.344299        -3.178210
 H         3.866319         2.111929        -2.661885
 H         4.205038        -1.332429        -0.881059
 H         0.701641        -0.075051        -0.796358
 H         2.956443        -0.384842         1.820722
 H         2.087753         2.573676         0.786138
 H         3.813884         2.768484        -0.230198
