19
Iteration:  3596
 C         0.946309         2.930855        -1.701539
 C         1.997278         1.934110        -1.285507
 C         2.976163         1.416929        -2.335342
 C         3.089584         0.183401        -1.462124
 O         3.940453        -0.906790        -1.619489
 C         1.682529         0.371776        -0.810726
 C         2.978216         0.631694         0.051447
 O         3.431773        -0.010594         1.135572
 C         2.745428         2.217356        -0.006059
 H         0.183127         2.969167        -0.975817
 H         1.441913         3.874684        -1.969226
 H         0.472243         2.598167        -2.625066
 H         2.431324         1.132190        -3.271620
 H         3.958285         1.862185        -2.424638
 H         3.948748        -1.452442        -0.773804
 H         0.690690        -0.001068        -0.679116
 H         4.416064         0.003459         1.032237
 H         2.041620         2.601849         0.645817
 H         3.711016         2.783600        -0.000364
