19
Iteration:  3124charge 0 multiplicity 1
 C         0.897527         2.913528        -1.673726
 C         1.904265         1.909836        -1.290567
 C         3.095710         1.395698        -2.328335
 C         3.101689         0.212968        -1.401248
 O         3.888753        -0.888562        -1.608756
 C         1.726135         0.361241        -0.782917
 C         2.872368         0.748998         0.073492
 O         3.488071        -0.164902         0.996006
 C         2.852539         2.257846        -0.055403
 H         0.091966         2.990338        -0.909384
 H         1.414385         3.904504        -1.812181
 H         0.301876         2.573201        -2.532407
 H         2.902865         1.225753        -3.426637
 H         4.094026         1.884853        -2.356362
 H         4.050056        -1.276645        -0.751329
 H         0.690479        -0.137171        -0.691515
 H         3.326536         0.280369         1.867635
 H         2.122219         2.888194         0.648062
 H         3.813846         2.840081        -0.118567
