19
Iteration:  3916charge 0 multiplicity 1
 C         0.924500         2.931908        -1.671559
 C         1.936881         1.841427        -1.370818
 C         2.994027         1.409766        -2.375139
 C         3.153846         0.281274        -1.399505
 O         3.843018        -0.930547        -1.555937
 C         1.816301         0.418741        -0.809536
 C         3.030583         0.762700         0.038641
 O         3.376381        -0.113809         1.116792
 C         2.749992         2.210581        -0.034751
 H         0.062138         3.014549        -0.946573
 H         1.526639         3.848113        -1.972103
 H         0.330441         2.610289        -2.580182
 H         2.500928         1.014802        -3.232113
 H         3.812911         2.141171        -2.478892
 H         4.067484        -1.274463        -0.655053
 H         1.078873        -0.400736        -0.635126
 H         4.377999         0.021961         1.149304
 H         2.063675         2.550252         0.690083
 H         3.628371         2.832296        -0.223933
