19
Iteration:  4033
 C         0.954753         2.843701        -1.755453
 C         2.008836         1.943172        -1.359085
 C         3.051133         1.447184        -2.238133
 C         3.123097         0.163449        -1.409880
 O         3.769942        -0.985802        -1.618902
 C         1.695373         0.328388        -0.817873
 C         3.013744         0.730755         0.056306
 O         3.468935         0.014662         1.161739
 C         2.673669         2.273999         0.051870
 H         0.133392         2.845885        -1.060587
 H         1.503181         3.759723        -2.011353
 H         0.557521         2.534181        -2.705352
 H         2.556359         1.346379        -3.315226
 H         4.028597         1.905075        -2.511778
 H         4.768392        -0.897948        -1.555200
 H         0.678607        -0.067228        -0.963760
 H         4.421849        -0.187191         0.877782
 H         1.888275         2.465764         0.873504
 H         3.623197         2.989859        -0.019005
