19
Iteration:  2346charge 0 multiplicity 1
 C         0.878709         2.845275        -1.679885
 C         1.963437         1.981148        -1.301538
 C         3.043162         1.376647        -2.301673
 C         3.220366         0.278201        -1.347959
 O         3.803772        -0.883649        -1.685259
 C         1.710953         0.409727        -0.850036
 C         2.943820         0.699205         0.043720
 O         3.502813        -0.082996         1.120919
 C         2.854391         2.205577        -0.030837
 H         0.318477         2.965275        -0.705538
 H         1.181776         3.853599        -2.083572
 H         0.380459         2.314398        -2.576777
 H         2.600884         1.010464        -3.267532
 H         3.912318         1.968822        -2.700547
 H         3.782569        -1.602636        -1.036633
 H         0.764453        -0.200035        -0.721625
 H         2.796399        -0.199271         1.774372
 H         2.363190         2.879826         0.798826
 H         3.861188         2.856569        -0.218824
