19
Iteration:  1938charge 0 multiplicity 1
 C         0.858194         2.807613        -1.895427
 C         1.946714         1.998861        -1.223217
 C         3.115648         1.492156        -2.244660
 C         3.109713         0.174266        -1.373438
 O         3.716597        -1.027099        -1.702316
 C         1.754760         0.490155        -0.721547
 C         3.036126         0.700826         0.029260
 O         3.623573        -0.096313         0.996175
 C         2.730031         2.267191         0.118116
 H        -0.115551         2.722267        -1.352866
 H         0.948172         3.907319        -1.895601
 H         0.417944         2.625742        -2.938450
 H         2.873590         1.565783        -3.319252
 H         4.139416         2.007659        -2.017647
 H         4.392454        -1.105362        -0.980373
 H         0.991702        -0.082719        -0.387425
 H         2.950032        -0.221363         1.710321
 H         2.044013         2.413060         0.919798
 H         3.545341         2.890945        -0.099852
