19
Iteration:   221charge 0 multiplicity 1
 C         0.806472         2.912392        -1.740607
 C         1.885098         1.877055        -1.339485
 C         3.084710         1.461988        -2.267706
 C         3.210565         0.239024        -1.317081
 O         3.812666        -0.952856        -1.735807
 C         1.788517         0.442477        -0.647149
 C         3.041331         0.738776         0.054223
 O         3.531781        -0.143665         1.140444
 C         2.775736         2.264378        -0.157799
 H        -0.020924         3.027744        -0.989066
 H         1.371752         3.914640        -1.957224
 H         0.318465         2.615424        -2.721105
 H         2.846963         1.082277        -3.333595
 H         3.729630         2.379868        -2.257850
 H         4.246991        -1.369158        -0.909554
 H         0.768512        -0.295182        -0.428872
 H         2.750262        -0.634293         1.321619
 H         2.110058         2.546997         0.722919
 H         3.506062         2.968349        -0.319501
