19
Iteration:  4122
 C         0.857778         2.811962        -1.752446
 C         2.003700         1.951338        -1.385599
 C         3.061835         1.448144        -2.286961
 C         3.166663         0.220998        -1.367113
 O         3.931461        -0.919306        -1.627916
 C         1.721286         0.483555        -0.892643
 C         2.977489         0.723534         0.108452
 O         3.436116         0.025743         1.202081
 C         2.752547         2.171438         0.058228
 H         0.102797         3.089054        -1.028946
 H         1.244474         3.708207        -2.229000
 H         0.278344         2.338327        -2.499273
 H         2.607633         1.131918        -3.294424
 H         4.061920         1.891319        -2.396689
 H         3.308339        -1.682055        -1.840178
 H         0.867383        -0.176469        -1.032043
 H         3.407146        -0.970573         1.013555
 H         2.198742         2.432838         0.988966
 H         3.793133         2.743402        -0.024042
