19
Iteration:  1968
 C         0.903121         2.829264        -1.763839
 C         1.968191         1.910451        -1.276043
 C         3.038220         1.435217        -2.299594
 C         3.167104         0.239116        -1.293951
 O         3.752468        -0.916170        -1.695340
 C         1.739692         0.447535        -0.820293
 C         2.922610         0.707493         0.131162
 O         3.596554        -0.129092         1.028957
 C         2.751769         2.255468         0.000377
 H         0.028530         2.732422        -1.083065
 H         1.229866         3.915476        -1.762785
 H         0.544035         2.818576        -2.840479
 H         2.597795         1.083550        -3.250423
 H         3.929136         2.012297        -2.371045
 H         4.468679        -1.191374        -1.054455
 H         1.032438        -0.268247        -0.856057
 H         3.082008        -0.106673         1.822710
 H         2.137178         2.850770         0.808281
 H         3.717594         2.905366        -0.270849
