19
Iteration:  1836charge 0 multiplicity 1
 C         0.917857         2.953078        -1.757666
 C         1.988592         1.927275        -1.244159
 C         2.887288         1.329576        -2.356718
 C         3.176894         0.249313        -1.380801
 O         3.960143        -0.837044        -1.664982
 C         1.747694         0.426124        -0.801983
 C         2.926069         0.717423         0.047920
 O         3.476236        -0.148443         1.091384
 C         2.855321         2.202316         0.046256
 H         0.186896         3.261199        -0.993560
 H         1.179859         3.979585        -2.121097
 H         0.309073         2.314249        -2.460748
 H         2.136429         1.070025        -3.165348
 H         3.694880         1.773620        -2.913611
 H         4.138967        -1.228975        -0.811756
 H         0.741819        -0.200079        -0.860296
 H         2.758040        -0.300382         1.705520
 H         2.317332         2.655492         0.856893
 H         3.809994         2.710248        -0.077790
