19
Iteration:  1304charge 0 multiplicity 1
 C         0.827702         2.817119        -1.766999
 C         1.941140         1.920883        -1.379642
 C         3.053394         1.467505        -2.316547
 C         3.221499         0.290459        -1.422698
 O         3.652510        -1.030628        -1.694371
 C         1.831992         0.387417        -0.839079
 C         3.044634         0.724442         0.163637
 O         3.500391         0.052636         1.260582
 C         2.766524         2.255965         0.072614
 H         0.087912         2.862373        -0.987846
 H         1.172275         3.852681        -1.927458
 H         0.401792         2.433092        -2.741194
 H         2.647749         1.027419        -3.237897
 H         3.753351         2.124901        -2.706466
 H         4.612557        -1.192895        -1.653639
 H         1.191684        -0.590329        -0.913161
 H         3.827869        -0.851212         1.004375
 H         2.214891         2.712377         0.928945
 H         3.632610         2.838326        -0.331430
