19
Iteration:  4896charge 0 multiplicity 1
 C         0.885109         2.827994        -1.733587
 C         1.941388         1.960629        -1.294036
 C         3.043727         1.518537        -2.328969
 C         3.243180         0.255798        -1.393462
 O         3.814555        -1.034241        -1.675059
 C         1.861655         0.413005        -0.821115
 C         2.943680         0.746396         0.066953
 O         3.473728        -0.001976         1.127520
 C         2.777837         2.185319         0.038203
 H         0.009689         2.890425        -1.107724
 H         1.103516         3.785007        -2.289541
 H         0.325962         2.231305        -2.457303
 H         2.487848         1.073182        -3.187808
 H         3.688872         2.377441        -2.589850
 H         4.234303        -1.346329        -0.817721
 H         0.984234        -0.309699        -0.727042
 H         2.708922        -0.478288         1.541609
 H         2.089267         2.540897         0.829413
 H         3.645634         2.854030        -0.224718
