19
Iteration:  4720
 C         0.865381         2.712562        -1.702706
 C         1.965678         1.930514        -1.374325
 C         3.121400         1.429737        -2.237136
 C         3.286474         0.185715        -1.356103
 O         3.833810        -0.959988        -1.821602
 C         1.821386         0.500873        -0.858185
 C         2.886881         0.785490         0.075564
 O         3.382735        -0.067136         1.153356
 C         2.759618         2.327597         0.089925
 H         0.257804         2.820730        -0.803001
 H         1.018482         3.822026        -1.952949
 H         0.318682         2.256348        -2.576307
 H         2.691737         1.096188        -3.281307
 H         4.094545         1.898544        -2.634770
 H         4.080119        -1.625887        -1.121005
 H         1.046979        -0.228119        -0.926687
 H         3.043154         0.270143         2.012572
 H         2.073385         2.685855         0.838009
 H         3.670058         2.897110         0.102870
