19
Iteration:   111
 C         0.853928         2.860884        -1.826301
 C         1.970428         1.955904        -1.278441
 C         2.998666         1.443316        -2.337729
 C         3.112214         0.233314        -1.405688
 O         3.742385        -0.958394        -1.605289
 C         1.789458         0.414243        -0.831153
 C         3.055666         0.765188         0.060850
 O         3.627628        -0.045983         1.069825
 C         2.759992         2.177335         0.140033
 H         0.074791         2.993908        -1.061018
 H         1.193818         3.910286        -2.122573
 H         0.360770         2.410800        -2.716621
 H         2.522863         1.098389        -3.304626
 H         3.922372         2.028975        -2.478433
 H         4.578253        -0.945833        -1.140739
 H         0.828985        -0.298499        -0.824591
 H         2.831679        -0.520345         1.484711
 H         1.984544         2.308108         0.883497
 H         3.544423         2.811876         0.205988
