19
Iteration:  2305charge 0 multiplicity 1
 C         0.882497         2.949606        -1.741390
 C         2.015577         1.950532        -1.240190
 C         3.002535         1.420901        -2.306714
 C         3.125799         0.161938        -1.395121
 O         3.833001        -1.050469        -1.717267
 C         1.748860         0.429326        -0.836476
 C         3.040154         0.686781        -0.045701
 O         3.508024        -0.053064         1.162328
 C         2.723719         2.252410         0.021991
 H        -0.097021         2.936051        -1.195249
 H         1.294293         4.016525        -1.563473
 H         0.572941         2.684591        -2.701211
 H         2.434105         1.168278        -3.254055
 H         3.878005         2.004394        -2.387754
 H         4.659357        -0.973189        -1.230363
 H         0.929175        -0.135154        -0.356726
 H         2.814663         0.050492         1.808331
 H         2.293584         2.609666         0.891049
 H         3.537969         2.994327         0.000779
