19
Iteration:  4989charge 0 multiplicity 1
 C         0.831466         2.942775        -1.750145
 C         1.926408         1.892676        -1.315982
 C         3.115389         1.516051        -2.312253
 C         3.186203         0.187032        -1.404374
 O         3.877584        -1.040071        -1.700816
 C         1.837347         0.401124        -0.776330
 C         2.935075         0.710019         0.106537
 O         3.419744        -0.028694         1.148878
 C         2.669567         2.227411        -0.038819
 H         0.033247         2.928341        -0.973547
 H         1.259781         3.908263        -2.005757
 H         0.186465         2.546455        -2.606552
 H         2.610153         1.258702        -3.282346
 H         4.022503         2.219064        -2.382082
 H         4.176745        -1.292568        -0.816409
 H         1.235323        -0.519514        -0.488942
 H         4.374672         0.108611         1.203320
 H         2.044133         2.510588         0.801566
 H         3.516737         2.831190        -0.107993
