19
Iteration:  3242charge 0 multiplicity 1
 C         0.906515         2.799934        -1.778421
 C         2.001583         1.925835        -1.199278
 C         3.100778         1.484229        -2.298549
 C         3.104276         0.226091        -1.434175
 O         3.787981        -0.992944        -1.618599
 C         1.687115         0.545632        -0.861799
 C         2.938212         0.702245         0.074032
 O         3.544987        -0.065922         1.000109
 C         2.778644         2.159171         0.061113
 H         0.008935         2.758295        -1.096778
 H         1.257520         3.792975        -1.937846
 H         0.410313         2.324694        -2.605962
 H         2.577565         1.386437        -3.336172
 H         4.104776         1.941886        -2.402657
 H         4.378517        -1.014312        -0.844200
 H         0.742858        -0.024381        -0.780547
 H         3.385506         0.434423         1.793414
 H         2.184739         2.364984         0.913067
 H         3.656606         2.781551         0.048418
