19
Iteration:  2167charge 0 multiplicity 1
 C         0.895818         2.970699        -1.669737
 C         1.900525         1.937331        -1.346536
 C         2.973574         1.403838        -2.299753
 C         3.134347         0.149503        -1.370754
 O         3.927072        -0.961608        -1.670636
 C         1.774354         0.423337        -0.796181
 C         2.989432         0.748638         0.084958
 O         3.443297        -0.143338         1.040158
 C         2.820914         2.268128        -0.082853
 H         0.157264         3.116747        -0.908720
 H         1.377501         3.880329        -1.761822
 H         0.238461         2.599651        -2.466620
 H         2.603048         0.966654        -3.193496
 H         3.879251         1.969522        -2.499560
 H         4.574289        -1.159760        -0.990458
 H         0.847097        -0.128545        -0.345253
 H         2.889868        -0.059394         1.878427
 H         2.176420         2.608009         0.822474
 H         3.705994         2.989646        -0.072275
