19
Iteration:  2559charge 0 multiplicity 1
 C         0.922034         2.884988        -1.802582
 C         1.949996         1.924290        -1.324007
 C         3.010139         1.415399        -2.208712
 C         3.127190         0.253281        -1.277478
 O         3.796409        -0.944938        -1.720171
 C         1.640751         0.451977        -0.811930
 C         2.942812         0.768503         0.104409
 O         3.667686        -0.145174         1.017538
 C         2.783812         2.233379        -0.003923
 H         0.509814         3.464183        -1.035478
 H         1.426923         3.726863        -2.320998
 H         0.184694         2.483414        -2.425787
 H         2.682699         1.013240        -3.203242
 H         3.869548         1.941297        -2.561474
 H         3.715238        -1.626114        -0.988952
 H         0.869448        -0.211869        -0.601899
 H         3.363832        -0.150292         1.910386
 H         2.060255         2.670725         0.736184
 H         3.616340         2.874381         0.232850
