19
Iteration:  4499charge 0 multiplicity 1
 C         0.868839         2.917875        -1.828149
 C         1.956069         1.955916        -1.273685
 C         3.216598         1.358657        -2.269750
 C         3.179962         0.208865        -1.353096
 O         3.932316        -0.951979        -1.679219
 C         1.761568         0.426855        -0.857702
 C         2.839164         0.646615         0.130436
 O         3.509806        -0.009038         1.142238
 C         2.580914         2.281600         0.100112
 H        -0.064261         2.822573        -1.248891
 H         1.212976         3.905567        -2.084596
 H         0.285137         2.593202        -2.732712
 H         2.986631         0.827615        -3.203303
 H         3.911504         2.163812        -2.301923
 H         3.250326        -1.556840        -1.913527
 H         1.006563        -0.289704        -0.934898
 H         4.408705        -0.174806         0.857959
 H         1.866937         2.572724         0.835455
 H         3.468702         2.886356         0.167585
