19
Iteration:  4100charge 0 multiplicity 1
 C         0.876201         2.855993        -1.729717
 C         2.019976         1.907223        -1.296054
 C         3.105334         1.475397        -2.337446
 C         3.212156         0.220194        -1.487087
 O         3.883128        -0.957650        -1.520925
 C         1.764234         0.365662        -0.777920
 C         2.955419         0.716741         0.064393
 O         3.389215         0.001257         1.100472
 C         2.772875         2.266647         0.070360
 H        -0.003399         3.020614        -1.115524
 H         1.124229         3.772796        -2.237253
 H         0.436062         2.265031        -2.490766
 H         2.584552         0.983124        -3.253264
 H         3.914970         2.187229        -2.616058
 H         3.723160        -1.301349        -2.396178
 H         0.894964        -0.156692        -0.470795
 H         3.141669        -0.897655         1.126955
 H         1.974577         2.582660         0.795139
 H         3.625886         3.084612        -0.063037
