19
Iteration:  1919
 C         0.875855         2.760629        -1.783136
 C         2.023584         1.994195        -1.243010
 C         3.066862         1.551634        -2.287018
 C         3.093013         0.210483        -1.455368
 O         3.669593        -0.984698        -1.647107
 C         1.776924         0.469860        -0.880406
 C         3.023136         0.706782         0.047536
 O         3.651206        -0.040965         1.065158
 C         2.749364         2.181807         0.121312
 H        -0.078541         2.790218        -1.235631
 H         1.209434         3.708988        -2.165648
 H         0.665187         2.393477        -2.771859
 H         2.633235         1.133614        -3.203790
 H         4.021143         2.127095        -2.337659
 H         4.078593        -1.261105        -0.814342
 H         0.756478        -0.093501        -0.803878
 H         2.907388        -0.125491         1.744855
 H         2.034659         2.244929         0.985737
 H         3.581207         2.916982         0.285442
