19
Iteration:   956charge 0 multiplicity 1
 C         0.873436         2.832673        -1.747034
 C         2.032324         1.912118        -1.407369
 C         3.103983         1.397341        -2.293620
 C         3.172466         0.265937        -1.321389
 O         3.728060        -1.007497        -1.554311
 C         1.741138         0.468188        -0.841884
 C         2.848406         0.720063         0.132884
 O         3.666309        -0.022766         0.990817
 C         2.688387         2.269794         0.055688
 H         0.072812         2.971613        -0.988836
 H         1.066351         3.888645        -2.006094
 H         0.355943         2.376970        -2.682630
 H         2.676981         1.175110        -3.241240
 H         3.912893         2.150372        -2.280455
 H         4.748046        -1.028986        -1.580876
 H         0.853857        -0.335001        -0.844398
 H         3.222183        -0.706917         1.494539
 H         1.861091         2.529315         0.738183
 H         3.641553         2.997612         0.098529
