19
Iteration:  3539charge 0 multiplicity 1
 C         0.862367         2.779794        -1.822012
 C         1.931326         1.945566        -1.278632
 C         3.075698         1.509487        -2.322452
 C         3.168522         0.234741        -1.450531
 O         3.737770        -1.040851        -1.673454
 C         1.802398         0.481041        -0.784845
 C         3.030703         0.687396         0.029045
 O         3.475021        -0.094985         1.104403
 C         2.761626         2.246580         0.114014
 H         0.109603         3.010923        -1.094235
 H         1.462807         3.705129        -1.810820
 H         0.522932         2.459226        -2.785857
 H         2.670026         1.409070        -3.320247
 H         3.916969         2.112032        -2.446957
 H         3.961583        -1.181982        -0.717512
 H         0.910804        -0.188058        -0.547977
 H         3.990416         0.573019         1.622793
 H         2.061673         2.621221         0.764428
 H         3.631636         2.953620         0.235808
