19
Iteration:  1123
 C         0.853555         2.808876        -1.837541
 C         1.928435         1.991004        -1.247297
 C         3.063744         1.466468        -2.254378
 C         3.193009         0.258133        -1.400085
 O         3.745268        -1.070925        -1.642223
 C         1.796870         0.423486        -0.765140
 C         3.019863         0.706576        -0.007320
 O         3.593628         0.044987         1.052699
 C         2.703135         2.210251         0.097601
 H        -0.049637         2.977374        -1.213222
 H         1.186501         3.840402        -1.984678
 H         0.495651         2.505085        -2.845104
 H         2.581652         1.075433        -3.171381
 H         3.949616         2.111302        -2.286271
 H         4.466729        -1.136268        -1.030366
 H         0.999842        -0.339525        -0.694497
 H         3.073971        -0.642784         1.451884
 H         1.924185         2.521448         0.880900
 H         3.490338         3.053352        -0.089400
