19
Iteration:  3976
 C         0.889696         2.757959        -1.714958
 C         2.015606         1.943164        -1.312018
 C         3.082702         1.455449        -2.286432
 C         3.161995         0.212557        -1.436854
 O         3.754061        -0.921842        -1.701875
 C         1.800866         0.464690        -0.799762
 C         2.969583         0.716299         0.046900
 O         3.395166        -0.112623         1.196433
 C         2.807224         2.240667        -0.002508
 H         0.097486         3.076226        -1.095065
 H         1.209648         3.624833        -2.269509
 H         0.539995         2.052911        -2.474559
 H         2.350425         1.207225        -3.154429
 H         4.012579         1.944571        -2.617753
 H         4.195710        -1.148693        -0.888626
 H         0.915015        -0.201544        -0.758894
 H         3.898732         0.623828         1.537668
 H         2.173104         2.873506         0.736846
 H         3.722320         2.930234        -0.242498
