19
Iteration:  2345charge 0 multiplicity 1
 C         0.881436         2.844754        -1.673206
 C         1.964440         1.981670        -1.312319
 C         3.040859         1.369355        -2.303690
 C         3.229030         0.280137        -1.336206
 O         3.798908        -0.878183        -1.694268
 C         1.707624         0.405386        -0.839883
 C         2.944423         0.696873         0.050280
 O         3.501282        -0.081876         1.115412
 C         2.848078         2.212780        -0.033878
 H         0.334204         2.962575        -0.710157
 H         1.180155         3.811176        -2.069385
 H         0.396600         2.357012        -2.614636
 H         2.641999         1.031818        -3.268205
 H         3.935335         1.973479        -2.710067
 H         3.808611        -1.610308        -1.025178
 H         0.761462        -0.224591        -0.685709
 H         2.771211        -0.208344         1.777293
 H         2.350203         2.891485         0.805856
 H         3.870902         2.815666        -0.237302
