19
Iteration:   822charge 0 multiplicity 1
 C         0.834490         2.835081        -1.749026
 C         1.939471         1.953244        -1.297952
 C         3.061914         1.553911        -2.344710
 C         3.205181         0.256662        -1.452662
 O         3.722095        -0.992570        -1.506194
 C         1.789079         0.387334        -0.837361
 C         2.980498         0.689174         0.001976
 O         3.564185         0.002905         1.071098
 C         2.745704         2.145691        -0.013905
 H         0.173631         2.871581        -0.846322
 H         1.312713         3.847849        -2.102708
 H         0.387681         2.290050        -2.583182
 H         2.696115         1.344363        -3.323870
 H         4.057943         1.991026        -2.223063
 H         4.579175        -1.044510        -0.951122
 H         1.103207        -0.290942        -0.603771
 H         2.833811        -0.295884         1.593204
 H         2.141175         2.386244         0.867039
 H         3.695687         2.810962         0.070668
