19
Iteration:  1288charge 0 multiplicity 1
 C         0.821080         2.876001        -1.850167
 C         1.869006         1.902743        -1.203173
 C         3.012840         1.511005        -2.256267
 C         3.325407         0.243322        -1.335763
 O         3.639871        -1.091561        -1.627850
 C         1.862911         0.376565        -0.797069
 C         3.033459         0.721215         0.032927
 O         3.547826         0.050409         1.157142
 C         2.739953         2.253728        -0.032086
 H        -0.121636         3.008823        -1.243641
 H         1.414978         3.788587        -2.002580
 H         0.551351         2.484313        -2.810787
 H         2.482738         1.253434        -3.231316
 H         3.870607         2.349838        -2.176405
 H         4.657525        -1.076915        -1.700825
 H         1.034651        -0.252042        -0.841794
 H         3.736396        -0.868725         0.763656
 H         2.003343         2.393474         0.750982
 H         3.625291         2.890790        -0.048470
