19
Iteration:  4719charge 0 multiplicity 1
 C         0.865244         2.712803        -1.701200
 C         1.967610         1.918769        -1.372214
 C         3.130946         1.423266        -2.239005
 C         3.279260         0.191227        -1.359601
 O         3.826944        -0.956344        -1.824706
 C         1.824048         0.503333        -0.849311
 C         2.890168         0.775041         0.066873
 O         3.375709        -0.062362         1.151176
 C         2.759679         2.329921         0.091372
 H         0.242309         2.797060        -0.802042
 H         1.043742         3.798208        -1.952959
 H         0.323241         2.268752        -2.592928
 H         2.727644         1.099992        -3.276482
 H         4.087175         1.942964        -2.636478
 H         4.128454        -1.615903        -1.108095
 H         1.012345        -0.252322        -0.908760
 H         3.073082         0.265652         2.051855
 H         2.093306         2.707288         0.838862
 H         3.663332         2.963662         0.129731
