19
Iteration:  4462charge 0 multiplicity 1
 C         0.884919         2.820843        -1.913140
 C         1.886311         1.917630        -1.210504
 C         3.055686         1.539791        -2.321907
 C         3.152039         0.303045        -1.450169
 O         3.876266        -0.930728        -1.434481
 C         1.778555         0.419004        -0.827181
 C         2.988565         0.653763         0.018087
 O         3.456740        -0.019997         1.117595
 C         2.732630         2.141921         0.077078
 H         0.106393         3.067376        -1.124213
 H         1.251279         3.847330        -2.089767
 H         0.578881         2.314641        -2.813218
 H         2.907303         1.467647        -3.356441
 H         4.010451         2.094592        -2.169067
 H         4.006567        -1.232674        -2.328581
 H         0.973508        -0.352965        -0.671271
 H         3.808867        -0.920540         0.903146
 H         2.035204         2.390295         0.875425
 H         3.486045         2.916008         0.009158
