19
Iteration:  3857
 C         0.906020         2.869918        -1.864775
 C         1.978940         1.859674        -1.315124
 C         3.155959         1.481437        -2.243761
 C         3.081079         0.174157        -1.358890
 O         3.787041        -0.939934        -1.769541
 C         1.719240         0.397509        -0.642053
 C         2.948503         0.746762         0.107620
 O         3.490804        -0.069581         1.131982
 C         2.733808         2.217272         0.007484
 H         0.163059         2.978967        -1.088846
 H         1.198382         3.963281        -2.062994
 H         0.534036         2.381462        -2.770943
 H         2.963258         1.329344        -3.371617
 H         4.012158         2.163224        -2.270780
 H         3.778087        -1.485062        -0.952266
 H         0.848139        -0.188071        -0.687223
 H         4.314114         0.413799         0.993485
 H         2.190953         2.595107         0.863150
 H         3.503562         2.959948        -0.118755
