19
Iteration:  3079charge 0 multiplicity 1
 C         0.903292         2.840013        -1.761912
 C         2.037688         1.948649        -1.312902
 C         3.096889         1.409329        -2.372516
 C         3.191577         0.257142        -1.371549
 O         3.669545        -0.966078        -1.631732
 C         1.763660         0.499607        -0.792806
 C         2.957374         0.727986         0.079305
 O         3.609376        -0.086147         1.054686
 C         2.714670         2.210137         0.088598
 H         0.025992         2.973587        -1.035822
 H         1.303539         3.812232        -2.105571
 H         0.359639         2.419942        -2.618792
 H         2.493894         1.140384        -3.297685
 H         3.908065         2.128683        -2.576773
 H         4.358746        -1.102498        -0.977710
 H         0.905658        -0.192646        -0.820267
 H         2.980178        -0.698582         1.542324
 H         2.003189         2.503326         0.986361
 H         3.462424         3.064168         0.076720
