19
Iteration:  4338
 C         0.894888         2.798095        -1.835029
 C         2.025519         1.886726        -1.287194
 C         3.099110         1.458392        -2.260425
 C         3.244201         0.233114        -1.350410
 O         3.882097        -0.951628        -1.658757
 C         1.672477         0.473526        -0.781168
 C         2.913747         0.688909         0.102735
 O         3.484932        -0.059597         1.086182
 C         2.686058         2.227791         0.090918
 H         0.010950         2.741954        -1.229834
 H         1.427484         3.762169        -2.040616
 H         0.560627         2.500972        -2.862116
 H         2.810708         1.170655        -3.221959
 H         4.105012         1.871742        -2.446796
 H         3.774150        -1.106212        -2.597764
 H         0.640095        -0.035153        -0.742665
 H         3.407543         0.441964         1.913104
 H         1.854130         2.470770         0.830602
 H         3.351019         3.084060         0.031683
