19
Iteration:  2420
 C         0.908390         2.935950        -1.823285
 C         1.952165         1.937586        -1.337913
 C         3.068752         1.456672        -2.308222
 C         3.135662         0.224388        -1.390210
 O         3.718050        -0.978220        -1.668961
 C         1.742798         0.420443        -0.755893
 C         2.898465         0.631299         0.135140
 O         3.638141        -0.058254         1.081441
 C         2.756408         2.202771         0.050335
 H         0.190640         3.284581        -1.064224
 H         1.398693         3.845335        -2.204797
 H         0.328975         2.357920        -2.638484
 H         2.523957         1.224428        -3.218804
 H         3.816955         2.333543        -2.521244
 H         4.597497        -1.020474        -1.314951
 H         0.920005        -0.326348        -0.674247
 H         3.334974        -0.524772         1.849119
 H         2.303934         2.785710         0.830736
 H         3.572301         2.836681         0.132276
