19
Iteration:   607
 C         0.867300         2.873668        -1.861486
 C         1.962200         1.927993        -1.248015
 C         3.059398         1.445510        -2.231178
 C         3.078058         0.228906        -1.394144
 O         3.755493        -0.976172        -1.749311
 C         1.754731         0.337793        -0.812131
 C         3.043441         0.727198         0.073881
 O         3.621168         0.014538         1.132340
 C         2.732306         2.210325         0.040982
 H         0.000499         3.086081        -1.233704
 H         1.262107         3.838854        -2.003400
 H         0.481997         2.474509        -2.799171
 H         2.668033         1.505269        -3.304653
 H         3.999923         2.222892        -2.190488
 H         4.318805        -1.415609        -1.023939
 H         0.904174        -0.527937        -0.742580
 H         2.930782        -0.060235         1.835399
 H         2.122515         2.236842         1.028647
 H         3.559571         2.935734         0.101103
