19
Iteration:  3789charge 0 multiplicity 1
 C         0.895796         2.813559        -1.685341
 C         1.958661         1.918683        -1.309629
 C         3.066233         1.380616        -2.303833
 C         3.142413         0.198987        -1.413044
 O         3.890205        -0.922619        -1.672888
 C         1.766192         0.395833        -0.836234
 C         2.938964         0.793495         0.068252
 O         3.359477        -0.111917         1.111805
 C         2.785375         2.354374        -0.033333
 H         0.450688         3.114897        -0.791358
 H         1.269802         3.737349        -2.062546
 H         0.235936         2.289592        -2.357402
 H         2.748883         1.004418        -3.283311
 H         3.913390         2.080961        -2.478108
 H         3.855929        -1.471033        -0.876913
 H         0.775852        -0.168023        -0.704614
 H         4.232061         0.010558         1.572006
 H         2.391932         2.893999         0.838563
 H         3.719797         2.719773        -0.110192
