19
Iteration:  1863
 C         0.900062         2.934781        -1.641799
 C         1.921200         1.868516        -1.282223
 C         3.010079         1.438198        -2.313125
 C         3.138174         0.162900        -1.453818
 O         4.000630        -0.945391        -1.649208
 C         1.683561         0.440882        -0.773016
 C         2.962954         0.721948        -0.036584
 O         3.434418        -0.099375         1.068681
 C         2.805826         2.203475        -0.029015
 H         0.377376         3.496531        -0.834656
 H         1.283419         3.796792        -2.168577
 H         0.047506         2.515642        -2.173208
 H         2.574689         1.310919        -3.293727
 H         3.975805         1.959592        -2.619056
 H         4.428287        -0.979661        -0.796906
 H         0.909367         0.009447        -0.264101
 H         2.738008        -0.000635         1.739709
 H         2.169243         2.478662         0.845424
 H         3.718492         2.798624        -0.184499
