19
Iteration:  2745charge 0 multiplicity 1
 C         0.952578         2.923890        -1.832998
 C         1.921349         1.915994        -1.259399
 C         2.964623         1.428740        -2.232914
 C         3.090691         0.194153        -1.433263
 O         3.845601        -0.997983        -1.672834
 C         1.702556         0.491150        -0.755238
 C         3.005154         0.750872         0.014035
 O         3.671910        -0.103050         1.081645
 C         2.684853         2.216245         0.040721
 H         0.259570         3.317656        -1.150817
 H         1.491385         3.827220        -2.251904
 H         0.479367         2.331135        -2.618017
 H         2.654421         1.595684        -3.322169
 H         3.921257         1.903113        -2.454027
 H         3.465715        -1.787672        -1.182245
 H         0.667649        -0.018432        -0.501854
 H         3.424272         0.174155         1.945411
 H         2.135380         2.384250         1.026750
 H         3.606435         2.760428         0.088150
