19
Iteration:   917
 C         0.849910         2.951810        -1.802660
 C         1.889689         1.977216        -1.261548
 C         2.958566         1.459413        -2.319616
 C         3.225139         0.176906        -1.372997
 O         3.867029        -1.023010        -1.615351
 C         1.754232         0.359403        -0.819128
 C         3.013107         0.710968         0.008551
 O         3.534933         0.020264         1.043188
 C         2.758566         2.131753         0.049447
 H         0.273839         3.264797        -0.949859
 H         1.493063         3.762309        -2.117649
 H         0.264488         2.575713        -2.623834
 H         2.684576         1.285425        -3.413441
 H         3.817591         2.162726        -2.276213
 H         4.245219        -1.251216        -0.782868
 H         1.027174        -0.461020        -0.640527
 H         3.000699         0.232210         1.838642
 H         2.061873         2.376660         0.866124
 H         3.552910         2.809843         0.078686
