19
Iteration:  3679charge 0 multiplicity 1
 C         0.861447         2.746337        -1.809503
 C         2.026497         1.932345        -1.254462
 C         3.112249         1.511013        -2.268386
 C         3.145406         0.183476        -1.363486
 O         3.790035        -1.012094        -1.750438
 C         1.747855         0.526837        -0.844679
 C         2.938578         0.685896         0.062317
 O         3.419313         0.038028         1.171394
 C         2.811540         2.205029         0.030878
 H         0.107298         2.953342        -1.017242
 H         1.007710         3.719160        -2.203683
 H         0.365458         2.109789        -2.564031
 H         2.660597         1.540295        -3.231114
 H         4.033947         2.114994        -2.304151
 H         3.865964        -1.657259        -1.064134
 H         0.884949         0.017299        -0.486596
 H         4.362775         0.000512         1.089069
 H         2.167139         2.453982         0.919352
 H         3.706958         2.770454         0.109171
