19
Iteration:  3180
 C         0.968250         2.912578        -1.762897
 C         1.916568         1.945428        -1.245618
 C         2.977790         1.555565        -2.352453
 C         3.167783         0.212743        -1.441969
 O         3.816115        -1.018604        -1.668018
 C         1.835501         0.327063        -0.783015
 C         3.023681         0.742494         0.049548
 O         3.466020        -0.037970         1.126125
 C         2.777439         2.186291        -0.007425
 H         0.362199         3.079320        -0.881432
 H         1.313332         3.933318        -2.153084
 H         0.318277         2.497070        -2.578359
 H         2.318626         1.396361        -3.179488
 H         3.891668         2.132674        -2.445158
 H         4.146908        -1.374371        -0.808427
 H         1.117278        -0.413377        -0.520044
 H         2.679896        -0.386076         1.544906
 H         2.022299         2.380157         0.894138
 H         3.557637         3.000093        -0.066116
