19
Iteration:  4849
 C         0.791645         2.761796        -1.747262
 C         1.971326         1.993893        -1.374644
 C         3.175696         1.482762        -2.190512
 C         3.195382         0.162099        -1.348610
 O         3.770497        -1.035551        -1.715703
 C         1.774208         0.422162        -0.832529
 C         2.990804         0.746801         0.039541
 O         3.421599        -0.011834         1.186263
 C         2.788171         2.230025        -0.061294
 H         0.109008         2.617309        -0.937879
 H         1.070916         3.774878        -1.801231
 H         0.134019         2.500485        -2.579801
 H         2.949184         1.412220        -3.204183
 H         4.055527         2.041208        -2.026090
 H         4.481874        -0.871448        -2.393872
 H         0.961614        -0.170168        -0.556880
 H         3.412809         0.417406         2.088097
 H         1.967683         2.519631         0.604412
 H         3.773756         2.842315         0.076866
