19
Iteration:  2319
 C         0.879657         2.926583        -1.696745
 C         1.891692         1.920065        -1.317588
 C         3.047554         1.363677        -2.272228
 C         3.116040         0.151763        -1.428708
 O         3.845669        -0.989024        -1.775305
 C         1.779195         0.429793        -0.732693
 C         3.019848         0.760447         0.136719
 O         3.468175        -0.090451         1.121685
 C         2.818754         2.298459        -0.045395
 H         0.157851         2.861130        -0.919791
 H         1.285700         3.915588        -1.737899
 H         0.603264         2.839013        -2.731799
 H         2.743105         1.201637        -3.306652
 H         3.953809         1.972908        -2.515237
 H         4.556366        -1.195501        -1.130913
 H         0.895067        -0.127834        -0.620236
 H         2.782656        -0.157282         1.825709
 H         2.038554         2.636468         0.647264
 H         3.570110         3.036402        -0.160596
