19
Iteration:  1726
 C         0.865292         2.873958        -1.816313
 C         1.919562         1.928277        -1.274257
 C         3.059434         1.459820        -2.218077
 C         3.147868         0.194075        -1.376798
 O         3.789080        -1.034849        -1.712202
 C         1.803399         0.409450        -0.707002
 C         3.009053         0.739230         0.108504
 O         3.517376        -0.079058         1.010221
 C         2.749690         2.281414         0.004848
 H         0.271908         3.082165        -0.943432
 H         1.511148         3.763107        -1.977385
 H         0.176810         2.612899        -2.580152
 H         2.701326         1.348136        -3.300356
 H         3.846443         2.234219        -2.368613
 H         4.743709        -0.994252        -1.404557
 H         0.978289        -0.294257        -0.547079
 H         2.778288        -0.079456         1.661231
 H         2.090864         2.531111         0.772079
 H         3.586379         2.903150        -0.118252
