19
Iteration:   344
 C         0.906834         2.849273        -1.750182
 C         2.014192         1.993066        -1.301272
 C         2.958312         1.346695        -2.382678
 C         3.136371         0.231681        -1.386117
 O         3.899247        -0.882880        -1.754646
 C         1.737065         0.475416        -0.810763
 C         2.873549         0.715919         0.129856
 O         3.558493        -0.030085         1.136620
 C         2.780448         2.197476         0.091761
 H         0.148163         2.845166        -0.881568
 H         1.152208         3.913288        -2.041739
 H         0.408425         2.330396        -2.597194
 H         2.325841         0.835637        -3.179057
 H         3.830168         1.855630        -2.852692
 H         4.170046        -1.295976        -0.940759
 H         0.923992        -0.083727        -0.927065
 H         3.088224        -0.651614         1.683927
 H         2.238531         2.503227         0.947233
 H         3.756133         2.579101         0.202426
