19
Iteration:  2097
 C         0.834882         2.836189        -1.787208
 C         1.999050         1.958606        -1.280002
 C         3.137746         1.446654        -2.238619
 C         3.114230         0.245964        -1.387465
 O         3.690521        -0.985992        -1.672311
 C         1.762464         0.433833        -0.773438
 C         3.016123         0.736836         0.121653
 O         3.644988        -0.121099         0.981537
 C         2.663352         2.278820        -0.014952
 H        -0.047713         3.051839        -1.161420
 H         1.422087         3.787086        -1.860794
 H         0.475909         2.449870        -2.731000
 H         2.845656         1.308997        -3.349402
 H         4.094156         2.011922        -2.084064
 H         4.228500        -1.254383        -0.943554
 H         0.985055        -0.170022        -0.559610
 H         3.071104        -0.238148         1.780877
 H         2.003789         2.352912         0.970361
 H         3.460677         3.094662        -0.081359
