19
Iteration:  2629
 C         0.859726         2.910557        -1.663177
 C         1.985137         1.929309        -1.349065
 C         3.120402         1.388901        -2.353810
 C         3.145717         0.240906        -1.405377
 O         3.677812        -1.040145        -1.674245
 C         1.791369         0.455687        -0.751090
 C         2.955551         0.734401         0.124076
 O         3.554224        -0.130064         1.106801
 C         2.806856         2.323101        -0.044074
 H        -0.034504         2.879216        -0.929284
 H         1.060782         3.974471        -1.679180
 H         0.458953         2.510682        -2.688238
 H         2.585143         1.137726        -3.232877
 H         3.857478         2.029254        -2.790218
 H         4.645489        -1.030151        -1.387602
 H         1.169482        -0.526209        -0.806232
 H         2.930867        -0.056945         1.834259
 H         2.102215         2.942746         0.560071
 H         3.774320         2.988189         0.124603
