19
Iteration:  3882
 C         0.900355         2.918628        -1.821536
 C         1.934909         1.966957        -1.250502
 C         3.002621         1.337185        -2.236396
 C         3.109377         0.146689        -1.350663
 O         3.884803        -0.943940        -1.679088
 C         1.720365         0.477240        -0.894260
 C         3.037317         0.779851         0.047611
 O         3.513836        -0.084992         1.127795
 C         2.667769         2.182643         0.034347
 H         0.004226         3.145283        -1.107051
 H         1.315111         3.990979        -1.892633
 H         0.699563         2.486483        -2.847113
 H         2.635623         1.006006        -3.234539
 H         3.919962         1.881620        -2.519741
 H         3.779806        -1.423971        -0.794942
 H         0.846267        -0.076219        -0.513310
 H         4.446810         0.306509         1.066022
 H         2.113751         2.626291         0.811622
 H         3.624576         2.732901         0.124750
