19
Iteration:  2214
 C         0.900130         2.790312        -1.776552
 C         2.026890         2.012242        -1.246733
 C         2.985700         1.494813        -2.308792
 C         3.164906         0.203094        -1.441843
 O         3.783219        -0.941913        -1.632280
 C         1.756591         0.423853        -0.856783
 C         2.966550         0.718493         0.044736
 O         3.538235        -0.066899         1.082428
 C         2.844475         2.169025         0.063946
 H         0.132144         3.204831        -1.092457
 H         1.322017         3.691667        -2.211640
 H         0.200202         2.149530        -2.297350
 H         2.433880         1.307742        -3.206835
 H         3.817631         2.169528        -2.458263
 H         3.990648        -1.435093        -0.852681
 H         0.816447         0.108164        -0.577605
 H         2.734236        -0.311072         1.525470
 H         2.191511         2.569850         0.842226
 H         3.724703         2.869924         0.002549
