19
Iteration:  3675charge 0 multiplicity 1
 C         0.835050         2.712367        -1.792196
 C         2.059853         1.920571        -1.272120
 C         3.122713         1.485521        -2.247693
 C         3.119284         0.230280        -1.369310
 O         3.785119        -0.999389        -1.760121
 C         1.781048         0.515288        -0.843534
 C         2.932393         0.694564         0.075261
 O         3.388193         0.051787         1.155911
 C         2.831588         2.191874         0.022185
 H         0.161684         3.083146        -0.963793
 H         1.062023         3.708572        -2.231182
 H         0.415517         2.126351        -2.634766
 H         2.603766         1.421675        -3.244192
 H         3.975182         2.213289        -2.362736
 H         3.866296        -1.634257        -0.975508
 H         0.876309         0.060904        -0.425396
 H         4.381349        -0.076579         1.038743
 H         2.226445         2.353301         0.947568
 H         3.709189         2.828309         0.260069
