19
Iteration:  4712charge 0 multiplicity 1
 C         0.826864         2.730620        -1.711953
 C         2.027759         1.871832        -1.329957
 C         3.202183         1.398670        -2.286811
 C         3.220099         0.251896        -1.367862
 O         3.795160        -0.951941        -1.831746
 C         1.793821         0.462350        -0.816855
 C         2.958623         0.723384         0.081393
 O         3.335687        -0.037324         1.138641
 C         2.773049         2.322460         0.073096
 H         0.097661         2.664588        -0.898929
 H         1.256177         3.736961        -1.959634
 H         0.315899         2.372136        -2.596535
 H         2.815917         1.054908        -3.268236
 H         3.941537         2.189842        -2.400020
 H         4.330223        -1.339624        -1.123054
 H         0.975083        -0.160110        -0.748231
 H         3.207164         0.284727         2.024340
 H         2.046856         2.708138         0.851836
 H         3.529790         3.106428         0.122592
