19
Iteration:  3940
 C         0.770731         2.913429        -1.680932
 C         1.989270         1.976871        -1.339950
 C         3.086134         1.353776        -2.282665
 C         3.171026         0.211309        -1.377569
 O         3.951006        -1.024224        -1.663551
 C         1.706086         0.446910        -0.808687
 C         2.930300         0.731602         0.014612
 O         3.409582        -0.100330         1.103974
 C         2.817380         2.296772        -0.030332
 H         0.098834         3.049277        -0.818368
 H         1.202996         3.833951        -2.067685
 H         0.083134         2.531886        -2.475218
 H         2.634733         1.085147        -3.176260
 H         4.024578         1.920823        -2.394649
 H         4.011843        -1.497813        -0.837954
 H         0.790155        -0.106795        -0.719732
 H         4.000281         0.510347         1.507974
 H         2.166063         2.720682         0.747351
 H         3.806761         2.698711        -0.134253
