19
Iteration:  2261
 C         0.909104         2.867075        -1.765362
 C         1.950389         1.917939        -1.345886
 C         3.175183         1.499799        -2.238446
 C         3.179864         0.249936        -1.324670
 O         3.628132        -1.006994        -1.668431
 C         1.758523         0.436179        -0.904705
 C         2.941401         0.703166         0.147523
 O         3.658857        -0.103724         1.044123
 C         2.673567         2.243988        -0.015872
 H         0.016944         2.951923        -1.104040
 H         1.299290         3.932845        -1.753785
 H         0.233205         2.497680        -2.452839
 H         2.606604         1.051143        -3.117166
 H         4.068657         2.107006        -2.393597
 H         4.483188        -0.941178        -1.197032
 H         0.914788        -0.321329        -0.628287
 H         3.404088        -0.181623         1.972347
 H         2.058132         2.646172         0.748156
 H         3.507331         2.933947        -0.107468
