19
Iteration:  2811
 C         0.841083         2.880080        -1.633160
 C         1.997571         1.950495        -1.272125
 C         3.001753         1.445997        -2.381093
 C         3.172287         0.234972        -1.471447
 O         3.730323        -1.061140        -1.549106
 C         1.815297         0.455774        -0.854369
 C         3.110768         0.713785        -0.026711
 O         3.423743        -0.001095         1.119228
 C         2.872766         2.194079         0.006711
 H         0.079979         2.847868        -0.876400
 H         1.069698         3.960774        -1.851372
 H         0.463860         2.458276        -2.597624
 H         2.411116         1.438746        -3.352002
 H         3.799570         2.151578        -2.597777
 H         4.632598        -0.943752        -1.260118
 H         1.035361        -0.105435        -0.359146
 H         2.583679        -0.518364         1.284363
 H         2.112087         2.439559         0.758454
 H         3.851020         2.688956        -0.066511
