19
Iteration:  1342charge 0 multiplicity 1
 C         0.835553         2.786545        -1.604022
 C         2.016980         1.962234        -1.279863
 C         3.065627         1.367496        -2.297073
 C         3.117721         0.111870        -1.437286
 O         3.887037        -1.072143        -1.712894
 C         1.733797         0.463872        -0.832272
 C         2.972155         0.745296        -0.059714
 O         3.368573         0.122393         1.218580
 C         2.822234         2.311756         0.005373
 H         0.276637         2.787032        -0.599207
 H         0.924201         3.849131        -1.927958
 H         0.157789         2.278055        -2.277340
 H         2.615009         1.158661        -3.278848
 H         4.015701         1.986257        -2.430437
 H         4.786839        -0.619888        -1.844983
 H         0.886155        -0.072144        -0.771842
 H         3.528685        -0.858619         1.087701
 H         2.407131         2.802782         0.875071
 H         3.777706         2.824184        -0.244837
