19
Iteration:   985charge 0 multiplicity 1
 C         0.805286         2.761804        -1.822163
 C         1.961414         1.953494        -1.277378
 C         3.064052         1.528393        -2.279532
 C         3.174196         0.187214        -1.463114
 O         3.708671        -1.015724        -1.642995
 C         1.749994         0.451273        -0.812138
 C         3.052506         0.679526         0.002862
 O         3.544693         0.025361         1.209311
 C         2.834122         2.230751         0.017984
 H        -0.136993         2.695504        -1.231589
 H         1.085215         3.829706        -2.066551
 H         0.698706         2.280678        -2.757560
 H         2.570063         1.567589        -3.306384
 H         3.976748         2.196239        -2.067030
 H         4.583653        -0.943493        -1.128342
 H         0.986489        -0.183445        -0.567369
 H         2.841108        -0.654708         1.430622
 H         2.303174         2.452550         0.952352
 H         3.579819         3.022524        -0.100559
