19
Iteration:  3833charge 0 multiplicity 1
 C         0.840633         2.788185        -1.828195
 C         2.009198         1.903024        -1.247453
 C         3.086178         1.488397        -2.263572
 C         3.178084         0.191409        -1.358183
 O         3.727461        -0.991496        -1.743617
 C         1.784082         0.416956        -0.949481
 C         3.024979         0.745288         0.077611
 O         3.410728        -0.031037         1.208861
 C         2.827156         2.299354         0.106310
 H         0.163204         3.059199        -1.078580
 H         1.215735         3.718236        -2.238897
 H         0.364079         2.240268        -2.621137
 H         2.557145         1.279182        -3.208974
 H         3.968571         2.095205        -2.529407
 H         3.890849        -1.483126        -0.942571
 H         0.897602        -0.210719        -0.689125
 H         4.377006        -0.029249         1.081734
 H         2.161981         2.503886         0.974619
 H         3.424263         3.122380        -0.017619
