19
Iteration:  4774
 C         0.950086         2.923817        -1.757231
 C         1.916507         1.909813        -1.259068
 C         3.032546         1.460071        -2.220724
 C         3.185217         0.137777        -1.399602
 O         3.974873        -0.920643        -1.569761
 C         1.748395         0.343299        -0.791315
 C         2.895607         0.719898         0.026174
 O         3.514166        -0.043987         1.014044
 C         2.695888         2.312743         0.003482
 H         0.171297         3.287573        -1.062689
 H         1.536863         3.770658        -2.233426
 H         0.343436         2.418468        -2.563125
 H         2.568850         1.090865        -3.191738
 H         3.925067         2.154620        -2.295750
 H         3.495253        -1.743282        -1.585735
 H         0.879666        -0.207543        -0.624980
 H         2.943018        -0.728350         1.340520
 H         1.975944         2.604549         0.741408
 H         3.497291         3.028798        -0.232441
