19
Iteration:  3688charge 0 multiplicity 1
 C         0.866741         2.814395        -1.819540
 C         1.959752         2.023672        -1.263291
 C         3.113481         1.507191        -2.263990
 C         3.170041         0.146035        -1.418121
 O         3.800492        -1.026803        -1.743480
 C         1.680152         0.458830        -0.807597
 C         2.996111         0.714330         0.046066
 O         3.473947        -0.021553         1.208975
 C         2.777135         2.231283         0.066720
 H         0.042316         2.750868        -1.051934
 H         1.144059         3.728694        -2.208784
 H         0.359030         2.198233        -2.603265
 H         2.826584         1.376747        -3.297141
 H         4.128391         1.985195        -2.179430
 H         3.756647        -1.624618        -1.010840
 H         0.769913        -0.121496        -0.791214
 H         4.407077         0.144933         1.218805
 H         2.076867         2.712397         0.817182
 H         3.573911         2.802010        -0.205562
