19
Iteration:  1644
 C         0.822779         2.907865        -1.644846
 C         1.950302         2.001505        -1.360517
 C         3.060899         1.436395        -2.359712
 C         3.143498         0.157593        -1.499358
 O         3.811723        -1.046384        -1.638034
 C         1.809315         0.413335        -0.749077
 C         3.057407         0.715426        -0.006319
 O         3.497459        -0.025532         1.110298
 C         2.761371         2.245225         0.015190
 H         0.186734         3.012667        -0.727989
 H         1.043067         3.953852        -1.891363
 H         0.218949         2.561558        -2.525434
 H         2.927023         1.202809        -3.403537
 H         3.937604         2.037734        -2.216318
 H         4.401125        -1.031920        -0.824085
 H         0.963324        -0.306765        -0.411893
 H         2.674836        -0.510615         1.418183
 H         2.102277         2.630049         0.832062
 H         3.575989         2.996726         0.057206
