19
Iteration:  3294charge 0 multiplicity 1
 C         0.936130         2.937200        -1.687339
 C         2.003796         1.928314        -1.320401
 C         2.987473         1.365040        -2.430350
 C         3.153213         0.208438        -1.346356
 O         3.940121        -0.897377        -1.679704
 C         1.732118         0.430622        -0.788827
 C         2.936684         0.688160         0.048388
 O         3.395751        -0.163106         1.159041
 C         2.727971         2.265112         0.012934
 H         0.194998         3.172410        -0.836427
 H         1.456766         3.876301        -1.920033
 H         0.438396         2.645250        -2.631504
 H         2.466614         0.892932        -3.263973
 H         3.873928         1.943398        -2.755048
 H         4.137408        -1.323893        -0.852012
 H         0.761100        -0.162982        -0.670619
 H         4.134602         0.446771         1.240395
 H         2.104577         2.454931         0.887571
 H         3.566391         3.068441        -0.108252
