19
Iteration:  1343
 C         0.831771         2.790338        -1.611830
 C         2.011125         1.956947        -1.265519
 C         3.063716         1.367616        -2.302561
 C         3.126338         0.119631        -1.431928
 O         3.888656        -1.074963        -1.708828
 C         1.734607         0.455346        -0.830706
 C         2.968817         0.741088        -0.060990
 O         3.366883         0.117344         1.214131
 C         2.825423         2.322927        -0.001408
 H         0.292630         2.820406        -0.607278
 H         0.904850         3.868356        -1.909806
 H         0.148211         2.305188        -2.266659
 H         2.628867         1.193331        -3.343867
 H         4.040029         2.002099        -2.437687
 H         4.786062        -0.633208        -1.845564
 H         0.881617        -0.096728        -0.732395
 H         3.520712        -0.847010         1.095920
 H         2.426960         2.800976         0.886603
 H         3.774116         2.789469        -0.244848
