19
Iteration:  4078
 C         0.828926         2.883155        -1.845895
 C         1.925408         1.933705        -1.276363
 C         3.083362         1.409221        -2.245396
 C         3.186116         0.224756        -1.427426
 O         3.854997        -1.008443        -1.506603
 C         1.768168         0.474221        -0.840624
 C         3.013835         0.686598         0.071122
 O         3.463076        -0.028786         1.175127
 C         2.782789         2.225792        -0.027732
 H         0.223993         2.868529        -0.930653
 H         1.206486         3.902412        -1.889642
 H         0.108780         2.765899        -2.609112
 H         2.633854         1.147147        -3.329967
 H         3.812519         2.233945        -2.396332
 H         4.199920        -0.773548        -2.437969
 H         1.022067        -0.229812        -0.843614
 H         3.296629        -1.026828         0.954911
 H         1.951226         2.512160         0.677812
 H         3.636494         3.071002        -0.150754
