19
Iteration:  2100charge 0 multiplicity 1
 C         0.836513         2.863660        -1.773428
 C         1.983267         1.950228        -1.300244
 C         3.144955         1.453126        -2.243348
 C         3.121576         0.259400        -1.375377
 O         3.693311        -1.001747        -1.686075
 C         1.774798         0.449118        -0.769531
 C         2.987042         0.741236         0.130520
 O         3.661948        -0.126513         0.994815
 C         2.652805         2.289173        -0.018370
 H        -0.033090         2.961648        -1.136595
 H         1.404055         3.749617        -1.846738
 H         0.475939         2.453506        -2.713147
 H         2.921954         1.230242        -3.280154
 H         4.070081         1.995381        -2.140334
 H         4.233269        -1.267499        -0.882024
 H         0.872355        -0.228294        -0.607208
 H         3.116647        -0.241216         1.755379
 H         1.988964         2.265407         0.868985
 H         3.495970         2.989297        -0.152602
