19
Iteration:  2719charge 0 multiplicity 1
 C         0.900435         2.968154        -1.853239
 C         1.979710         1.892754        -1.266059
 C         3.002246         1.384725        -2.234738
 C         3.181275         0.251985        -1.346898
 O         3.753675        -0.932228        -1.750751
 C         1.718849         0.341291        -0.729289
 C         3.009429         0.717860         0.050884
 O         3.600602        -0.024341         1.081527
 C         2.783278         2.224602         0.076977
 H         0.260410         3.435416        -1.026194
 H         1.437104         3.850716        -2.335788
 H         0.340949         2.410439        -2.606515
 H         2.464375         1.118789        -3.102424
 H         3.753357         1.941577        -2.738490
 H         3.578973        -1.648105        -1.078216
 H         0.963586        -0.356051        -0.888793
 H         2.997649        -0.079315         1.807310
 H         2.020108         2.433292         0.819468
 H         3.860243         2.752009         0.100431
