19
Iteration:  3378charge 0 multiplicity 1
 C         0.876240         2.744545        -1.752445
 C         2.042509         2.009824        -1.319993
 C         3.082942         1.459481        -2.301518
 C         3.135879         0.233104        -1.459357
 O         3.781821        -1.007012        -1.707239
 C         1.833470         0.520738        -0.809035
 C         3.043607         0.717768         0.056338
 O         3.420076        -0.061140         1.143838
 C         2.689220         2.246336         0.151323
 H        -0.036792         2.897919        -1.285342
 H         1.109017         3.747930        -2.247890
 H         0.498014         2.151442        -2.620604
 H         2.594873         1.381478        -3.294205
 H         4.061324         2.009671        -2.446071
 H         3.651973        -1.599413        -0.920282
 H         0.816622        -0.074132        -0.692971
 H         4.387243        -0.154503         1.211429
 H         1.909058         2.655361         0.852157
 H         3.571290         2.821747         0.291591
