19
Iteration:  4098
 C         0.876444         2.845800        -1.715199
 C         2.009201         1.901633        -1.324304
 C         3.087614         1.494055        -2.347573
 C         3.218923         0.213323        -1.472292
 O         3.877706        -0.967676        -1.515700
 C         1.757584         0.378569        -0.780997
 C         2.982634         0.737698         0.075175
 O         3.390281        -0.007212         1.101119
 C         2.763580         2.266825         0.057128
 H         0.002940         3.074643        -1.154888
 H         1.174477         3.783370        -2.200816
 H         0.482911         2.257795        -2.514686
 H         2.568478         1.011811        -3.225977
 H         3.937651         2.132499        -2.518861
 H         3.826853        -1.284832        -2.442526
 H         0.903236        -0.142214        -0.493218
 H         3.126190        -0.943326         1.123975
 H         1.996331         2.559473         0.860705
 H         3.588459         3.026694        -0.073817
