19
Iteration:  1738charge 0 multiplicity 1
 C         0.840869         2.869955        -1.760726
 C         1.920240         1.862079        -1.319911
 C         3.093780         1.470582        -2.244697
 C         3.234759         0.269341        -1.320981
 O         3.669869        -1.004889        -1.689580
 C         1.819552         0.383366        -0.827373
 C         2.955222         0.782192         0.089494
 O         3.589998        -0.117899         1.023251
 C         2.712063         2.294249         0.060470
 H         0.102587         3.210247        -1.059185
 H         1.348703         3.805302        -2.095908
 H         0.427392         2.560878        -2.726956
 H         2.813833         0.936365        -3.172220
 H         4.015230         2.129894        -2.278832
 H         4.548399        -1.140027        -1.364009
 H         0.947006        -0.368352        -0.767021
 H         3.241144        -0.134996         1.901297
 H         2.124353         2.811299         0.761881
 H         3.591672         2.894541        -0.039669
