19
Iteration:  4471charge 0 multiplicity 1
 C         0.911727         2.805197        -1.880103
 C         1.963270         1.884432        -1.275647
 C         3.152051         1.525521        -2.237221
 C         3.096776         0.217129        -1.435822
 O         3.864134        -0.897654        -1.494339
 C         1.754248         0.404140        -0.806430
 C         2.980031         0.662873         0.019051
 O         3.479943        -0.022434         1.118639
 C         2.649138         2.230303         0.070971
 H         0.029626         2.969320        -1.223758
 H         1.382497         3.820849        -2.091800
 H         0.468233         2.481046        -2.822034
 H         2.751323         1.160828        -3.217646
 H         3.835224         2.451501        -2.295175
 H         3.824828        -1.279301        -2.364843
 H         0.853966        -0.198057        -0.687727
 H         4.104652        -0.746152         0.837648
 H         1.868612         2.311862         0.909031
 H         3.529782         2.924778         0.141566
