19
Iteration:  4810
 C         0.931758         2.904277        -1.858709
 C         1.972319         1.895763        -1.322808
 C         3.000499         1.444766        -2.263993
 C         3.156145         0.289144        -1.385316
 O         3.846257        -0.939101        -1.576085
 C         1.749718         0.414320        -0.833893
 C         2.959645         0.654712         0.070459
 O         3.592768        -0.055140         1.163560
 C         2.707484         2.167273         0.045650
 H         0.105402         2.932819        -1.091372
 H         1.370696         3.964450        -2.025333
 H         0.570672         2.531781        -2.838389
 H         2.530470         1.014218        -3.239263
 H         3.800722         2.151153        -2.660832
 H         3.928132        -1.151320        -2.500070
 H         0.826927        -0.215785        -0.794601
 H         2.986914         0.179696         1.857162
 H         1.943383         2.277081         0.849595
 H         3.431842         2.905124         0.253511
