19
Iteration:  3674
 C         0.827865         2.703391        -1.785649
 C         2.064619         1.925112        -1.277627
 C         3.126959         1.478922        -2.243001
 C         3.116270         0.239179        -1.375120
 O         3.783244        -0.995400        -1.761274
 C         1.786294         0.507773        -0.840110
 C         2.934724         0.701051         0.076646
 O         3.381549         0.052553         1.153590
 C         2.833978         2.187244         0.025346
 H         0.180795         3.089017        -0.965502
 H         1.099739         3.722913        -2.253891
 H         0.418370         2.136660        -2.638937
 H         2.596290         1.370489        -3.250001
 H         3.951527         2.219527        -2.372206
 H         3.858846        -1.604861        -0.967075
 H         0.862994         0.064228        -0.425860
 H         4.366182        -0.095108         1.030191
 H         2.234055         2.334228         0.933526
 H         3.739567         2.865004         0.279678
