19
Iteration:  3095charge 0 multiplicity 1
 C         0.858755         2.911667        -1.776473
 C         1.930058         2.020723        -1.236583
 C         2.986649         1.500225        -2.272543
 C         3.217332         0.259633        -1.414400
 O         3.797220        -1.060802        -1.531067
 C         1.759517         0.479767        -0.830702
 C         3.028827         0.668827        -0.014351
 O         3.564273        -0.102049         0.996296
 C         2.789612         2.187724         0.026479
 H         0.089273         3.016242        -1.059807
 H         1.176674         3.952678        -2.010780
 H         0.473042         2.334078        -2.657834
 H         2.584002         1.200298        -3.227208
 H         3.877507         2.055416        -2.731535
 H         4.113340        -1.352168        -0.666048
 H         0.843344        -0.097464        -0.760571
 H         2.801055        -0.067091         1.636652
 H         1.982580         2.339169         0.720466
 H         3.674693         2.806402         0.149608
