19
Iteration:  4854charge 0 multiplicity 1
 C         0.762472         2.756085        -1.723672
 C         2.035764         1.972743        -1.372992
 C         3.178980         1.471375        -2.238050
 C         3.177860         0.176224        -1.310979
 O         3.762579        -1.022102        -1.728562
 C         1.771941         0.487122        -0.848620
 C         3.010228         0.720727         0.067692
 O         3.423383        -0.013383         1.202436
 C         2.759022         2.191439        -0.073279
 H         0.079137         2.611114        -0.828139
 H         1.057090         3.876253        -1.855775
 H         0.228488         2.381430        -2.627904
 H         2.989300         1.448819        -3.394219
 H         4.174308         2.074910        -2.168992
 H         4.501523        -0.792980        -2.271814
 H         0.935931        -0.211665        -0.501500
 H         3.378747         0.334313         2.072499
 H         1.974022         2.616640         0.595325
 H         3.587567         2.839997         0.013744
