19
Iteration:  2511
 C         0.872382         2.878368        -1.653978
 C         2.038631         1.933028        -1.252101
 C         2.979779         1.477815        -2.342177
 C         3.166986         0.185091        -1.429908
 O         3.788978        -1.029585        -1.585981
 C         1.763524         0.443185        -0.839138
 C         2.950219         0.696955        -0.053526
 O         3.463976         0.005859         1.074045
 C         2.908010         2.199703         0.005768
 H         0.134796         2.970564        -0.816120
 H         0.964098         3.889798        -1.970677
 H         0.382514         2.297526        -2.453615
 H         2.549320         1.239475        -3.345543
 H         3.767193         2.279595        -2.628299
 H         4.539855        -1.098852        -0.955858
 H         0.793945        -0.071592        -0.591914
 H         2.700265        -0.426149         1.566198
 H         2.413351         2.627546         0.911291
 H         3.796825         2.826340        -0.131036
