19
Iteration:   632
 C         0.899025         2.848885        -1.801839
 C         1.981320         1.899465        -1.301842
 C         3.115853         1.411865        -2.266706
 C         3.135372         0.168554        -1.372171
 O         3.815819        -1.021995        -1.703432
 C         1.700788         0.455140        -0.744203
 C         2.938983         0.738144         0.080356
 O         3.621318        -0.011601         0.982105
 C         2.643250         2.247898         0.096285
 H         0.107736         3.152239        -1.091357
 H         1.393210         3.858015        -1.868205
 H         0.394503         2.627224        -2.785824
 H         2.682790         1.156635        -3.234501
 H         3.740795         2.276239        -2.270829
 H         4.681393        -1.137149        -1.255275
 H         0.843218         0.012842        -0.492365
 H         3.076547        -0.090687         1.825374
 H         1.886306         2.391910         0.817346
 H         3.469113         2.970262         0.225937
