19
Iteration:  3881
 C         0.896008         2.908815        -1.824131
 C         1.928992         1.972484        -1.249548
 C         3.005977         1.333429        -2.223769
 C         3.109902         0.145624        -1.349276
 O         3.880772        -0.938293        -1.683488
 C         1.713719         0.479800        -0.895384
 C         3.038071         0.776827         0.045286
 O         3.519050        -0.084882         1.129482
 C         2.669842         2.184013         0.026939
 H         0.030692         3.151106        -1.108157
 H         1.328685         3.990449        -1.891077
 H         0.701172         2.510101        -2.860274
 H         2.665798         1.009958        -3.262301
 H         3.932914         1.867118        -2.495525
 H         3.770103        -1.429394        -0.804734
 H         0.861638        -0.055930        -0.509308
 H         4.468571         0.295847         1.107074
 H         2.110614         2.638236         0.795207
 H         3.618312         2.704742         0.147140
