19
Iteration:  2723charge 0 multiplicity 1
 C         0.884139         2.979343        -1.880191
 C         1.977015         1.925010        -1.234669
 C         3.010097         1.401352        -2.247131
 C         3.143775         0.229064        -1.366006
 O         3.779499        -0.953590        -1.732844
 C         1.724178         0.347837        -0.740062
 C         3.015877         0.676957         0.057175
 O         3.613989        -0.018222         1.070065
 C         2.806810         2.201685         0.105610
 H         0.265181         3.458640        -1.168352
 H         1.441426         3.860314        -2.310035
 H         0.306769         2.451568        -2.627811
 H         2.449814         1.103166        -3.225649
 H         3.703901         2.095785        -2.778281
 H         3.510728        -1.636200        -1.130334
 H         0.857932        -0.452902        -0.765426
 H         3.016789        -0.013038         1.883145
 H         2.016560         2.619797         0.801867
 H         3.644105         2.853380         0.204070
