19
Iteration:  1997charge 0 multiplicity 1
 C         0.816871         2.982247        -1.643690
 C         1.999426         1.922492        -1.250377
 C         2.947421         1.447100        -2.391874
 C         3.143300         0.158800        -1.438620
 O         3.923688        -0.991623        -1.602313
 C         1.764308         0.447129        -0.934609
 C         2.985614         0.633491         0.008912
 O         3.493911         0.002732         1.095611
 C         2.817333         2.146397         0.030843
 H         0.245777         3.172161        -0.731618
 H         1.307799         3.932776        -1.899064
 H         0.257862         2.658175        -2.477101
 H         2.440502         1.156447        -3.356045
 H         3.891341         2.017457        -2.564282
 H         4.354047        -1.403234        -0.865436
 H         0.914648        -0.329192        -0.724921
 H         2.808214         0.266090         1.778213
 H         2.151360         2.528340         0.786171
 H         3.503015         2.893746         0.203112
