19
Iteration:  3073
 C         0.911323         2.803042        -1.785087
 C         2.000350         1.960174        -1.343664
 C         3.108617         1.395114        -2.325469
 C         3.100656         0.264266        -1.386017
 O         3.667915        -0.969050        -1.666673
 C         1.808727         0.498777        -0.809783
 C         2.946541         0.732734         0.113093
 O         3.631189        -0.081976         1.077491
 C         2.696011         2.257628         0.136375
 H         0.262891         2.987801        -0.956627
 H         1.363878         3.807277        -1.948077
 H         0.295840         2.444862        -2.633582
 H         2.737702         1.094351        -3.296069
 H         3.906313         2.095935        -2.683287
 H         4.460620        -1.124728        -1.081760
 H         1.016226        -0.278408        -0.789748
 H         2.922686        -0.668566         1.364464
 H         1.999132         2.620020         0.837067
 H         3.622971         2.826152         0.037885
