19
Iteration:  1903charge 0 multiplicity 1
 C         0.846531         2.842950        -1.754872
 C         1.990455         1.948467        -1.269735
 C         3.114703         1.450872        -2.319246
 C         3.257949         0.320455        -1.366655
 O         3.702746        -1.015826        -1.678438
 C         1.751690         0.456055        -0.874306
 C         2.899972         0.686569         0.108255
 O         3.613342        -0.029776         1.028844
 C         2.728335         2.180749         0.091025
 H         0.286292         2.985848        -0.815603
 H         1.242599         3.844055        -2.060972
 H         0.281491         2.214474        -2.496108
 H         2.523876         1.308871        -3.242521
 H         3.933683         2.158461        -2.568082
 H         3.985883        -1.485155        -0.843916
 H         0.974847        -0.243228        -1.078066
 H         3.153602        -0.249322         1.860151
 H         2.100783         2.697879         0.785119
 H         3.628130         2.791976         0.090246
