19
Iteration:  2404
 C         0.889496         2.873162        -1.774746
 C         1.940752         1.939988        -1.300882
 C         3.079513         1.416912        -2.251430
 C         3.148342         0.250269        -1.287432
 O         3.719931        -0.968393        -1.668386
 C         1.727935         0.445216        -0.811042
 C         2.971135         0.771155         0.112057
 O         3.643448        -0.158499         0.994691
 C         2.713195         2.253290         0.011461
 H         0.329303         3.362792        -0.934034
 H         1.523277         3.735672        -2.315815
 H         0.100120         2.457492        -2.359693
 H         2.724527         1.027034        -3.268932
 H         3.992197         1.902058        -2.228380
 H         4.570826        -1.118615        -1.191284
 H         0.891935        -0.219432        -0.979348
 H         3.019920        -0.140410         1.782771
 H         1.931362         2.625442         0.756625
 H         3.698242         2.921039        -0.244310
