19
Iteration:  4730charge 0 multiplicity 1
 C         0.784748         2.797659        -1.734917
 C         2.068241         1.998319        -1.308006
 C         3.094229         1.420928        -2.299673
 C         3.250035         0.258156        -1.320581
 O         3.897350        -0.990981        -1.786649
 C         1.808380         0.450628        -0.917464
 C         2.928938         0.768737         0.155588
 O         3.418729        -0.069328         1.154192
 C         2.746899         2.244484         0.034027
 H         0.141645         2.841465        -0.843367
 H         1.037647         3.824947        -2.129578
 H         0.137018         2.215284        -2.446738
 H         2.466025         1.055475        -3.163678
 H         4.044560         2.028607        -2.494874
 H         3.674775        -1.643669        -1.107283
 H         0.924154        -0.202511        -0.983817
 H         2.821452         0.146296         1.876711
 H         2.049688         2.625855         0.761310
 H         3.720085         2.736484        -0.044979
