19
Iteration:  2856charge 0 multiplicity 1
 C         0.872540         2.881394        -1.696924
 C         2.008722         1.976686        -1.375793
 C         3.059840         1.464678        -2.321282
 C         3.144603         0.203942        -1.391870
 O         3.706902        -0.981395        -1.753132
 C         1.730492         0.434824        -0.805832
 C         2.919189         0.633935         0.140520
 O         3.527140         0.019154         1.285078
 C         2.863594         2.194895        -0.048392
 H         0.343120         3.052300        -0.761143
 H         1.216134         3.876694        -2.012729
 H         0.218479         2.573664        -2.571018
 H         2.691406         0.918463        -3.288656
 H         3.989417         2.011491        -2.602514
 H         4.646168        -0.949524        -1.595428
 H         0.797099         0.023133        -0.736179
 H         3.469680        -0.981921         1.235582
 H         2.129176         2.555932         0.737290
 H         3.801536         2.761533        -0.297679
