19
Iteration:  1933charge 0 multiplicity 1
 C         0.868907         2.806290        -1.903455
 C         1.946124         1.970865        -1.218188
 C         3.125592         1.486074        -2.239773
 C         3.085253         0.229364        -1.422657
 O         3.707709        -1.034197        -1.683210
 C         1.721826         0.506842        -0.778389
 C         3.084713         0.712330         0.017408
 O         3.624377        -0.078835         1.035379
 C         2.754099         2.212842         0.131243
 H        -0.038013         2.697800        -1.275384
 H         0.962678         3.917373        -1.817133
 H         0.490587         2.373218        -2.854369
 H         2.732082         1.762088        -3.247557
 H         4.039917         2.009910        -2.250548
 H         4.296565        -1.089469        -0.897433
 H         0.850236        -0.233228        -0.409895
 H         3.016887        -0.235239         1.748709
 H         1.874143         2.422731         0.860511
 H         3.669386         3.010388         0.082332
