19
Iteration:  1767charge 0 multiplicity 1
 C         0.860703         2.785906        -1.769995
 C         2.042951         1.994104        -1.375992
 C         3.118614         1.547541        -2.266999
 C         3.153623         0.243435        -1.437200
 O         3.626949        -1.043372        -1.604827
 C         1.711555         0.487533        -0.879632
 C         2.995121         0.650417         0.032465
 O         3.685719        -0.009628         1.079605
 C         2.708637         2.119104         0.147305
 H        -0.034346         2.908867        -1.093967
 H         0.971182         3.899063        -1.866526
 H         0.465601         2.492772        -2.730294
 H         2.783587         1.202836        -3.290060
 H         3.994926         2.059116        -2.516384
 H         4.322365        -1.073185        -0.919706
 H         0.870310        -0.052623        -1.182236
 H         3.269337         0.244345         1.956131
 H         1.873360         2.417055         0.858132
 H         3.630475         2.735095         0.401345
