19
Iteration:   824
 C         0.831770         2.832377        -1.759380
 C         1.953716         1.947253        -1.277032
 C         3.057521         1.554813        -2.353776
 C         3.185340         0.266611        -1.469428
 O         3.728834        -0.999429        -1.507622
 C         1.805721         0.376382        -0.836572
 C         2.993481         0.684093         0.000338
 O         3.548454         0.005504         1.077299
 C         2.766002         2.154934        -0.002346
 H         0.162030         2.868903        -0.864932
 H         1.272642         3.824421        -2.103326
 H         0.305724         2.355863        -2.623412
 H         2.682294         1.423387        -3.329660
 H         4.035748         2.008616        -2.205310
 H         4.534048        -1.057673        -0.918931
 H         1.106044        -0.333009        -0.569939
 H         2.787850        -0.275468         1.603920
 H         2.184704         2.393049         0.849131
 H         3.609342         2.825495         0.037872
