19
Iteration:  1098
 C         0.877000         2.835063        -1.761637
 C         1.981968         1.945551        -1.412716
 C         3.037816         1.446955        -2.418969
 C         3.096013         0.271647        -1.328357
 O         3.836311        -0.960701        -1.539785
 C         1.706493         0.449770        -0.762714
 C         2.946948         0.720507         0.112637
 O         3.669833        -0.143225         1.009105
 C         2.644705         2.227405         0.090856
 H         0.147962         3.274475        -1.122903
 H         1.420364         3.720478        -2.064990
 H         0.391792         2.590710        -2.756161
 H         2.541759         1.011269        -3.250674
 H         3.974827         2.151062        -2.610906
 H         4.700874        -0.969315        -1.085769
 H         0.895713        -0.190526        -0.725963
 H         3.298174        -0.310020         1.908884
 H         1.813466         2.604217         0.618757
 H         3.468700         2.938863        -0.031164
