19
Iteration:  4224charge 0 multiplicity 1
 C         0.939525         2.823582        -1.748701
 C         1.932114         1.876186        -1.261105
 C         3.098089         1.454004        -2.245215
 C         3.159951         0.231867        -1.391787
 O         3.899401        -0.942851        -1.579119
 C         1.762906         0.449646        -0.854550
 C         2.914678         0.701100         0.065927
 O         3.316406        -0.041855         1.141127
 C         2.796461         2.218088        -0.002613
 H         0.120863         2.846859        -0.994043
 H         1.255970         3.809181        -1.986653
 H         0.479718         2.505233        -2.686558
 H         2.721409         1.029999        -3.181913
 H         3.762499         2.236801        -2.552901
 H         3.922262        -1.329068        -2.440230
 H         0.938568        -0.211103        -0.727366
 H         4.260308         0.088187         1.164852
 H         2.343761         2.877204         0.745365
 H         3.729780         2.772652        -0.443414
