19
Iteration:  4580
 C         0.834417         2.768085        -1.745632
 C         1.992765         1.938046        -1.305280
 C         3.147666         1.455584        -2.387971
 C         3.138196         0.296004        -1.364528
 O         3.916997        -0.850385        -1.642167
 C         1.698934         0.498550        -0.856745
 C         2.937070         0.644091         0.165769
 O         3.373936        -0.207955         1.142705
 C         2.803956         2.228330        -0.083707
 H         0.347710         3.091600        -0.878149
 H         1.187352         3.768295        -2.061670
 H         0.239199         2.361289        -2.526026
 H         2.651473         1.174151        -3.347402
 H         4.084857         1.865617        -2.672233
 H         4.475037        -1.107394        -0.925313
 H         0.667116        -0.015642        -0.765991
 H         3.525272         0.245111         1.960305
 H         2.071824         2.616405         0.738413
 H         3.697161         2.910923         0.019782
