19
Iteration:  4094charge 0 multiplicity 1
 C         0.881601         2.824031        -1.710717
 C         1.981409         1.905294        -1.349514
 C         3.048272         1.502235        -2.357758
 C         3.213745         0.216425        -1.418823
 O         3.875301        -0.989419        -1.516083
 C         1.773101         0.422255        -0.798835
 C         3.018824         0.768904         0.070710
 O         3.400784        -0.026430         1.117941
 C         2.740380         2.256064         0.030033
 H         0.000631         3.138132        -1.080508
 H         1.298639         3.790868        -2.116765
 H         0.480218         2.257825        -2.641054
 H         2.568376         1.164447        -3.243272
 H         4.007788         2.071267        -2.389936
 H         3.996796        -1.263389        -2.456692
 H         0.831038        -0.180898        -0.534495
 H         3.093143        -0.957016         1.059785
 H         2.109858         2.506379         0.875889
 H         3.553004         2.915627        -0.054156
