19
Iteration:  4844
 C         0.811726         2.781604        -1.770203
 C         1.933321         1.945065        -1.358349
 C         3.170899         1.475996        -2.147760
 C         3.199818         0.180554        -1.416954
 O         3.784428        -1.054471        -1.699573
 C         1.794315         0.370891        -0.823814
 C         2.967690         0.759488         0.050989
 O         3.422763        -0.011455         1.155299
 C         2.815971         2.287502        -0.013932
 H         0.051599         2.723276        -0.906281
 H         1.041943         3.912697        -1.788023
 H         0.204638         2.545677        -2.660760
 H         2.882137         1.228299        -3.256649
 H         4.078839         2.156454        -1.942949
 H         4.390584        -0.940716        -2.446764
 H         0.831886        -0.225937        -0.626410
 H         3.336972         0.631414         1.879979
 H         2.090105         2.465361         0.829604
 H         3.690547         2.863033         0.002672
