19
Iteration:   486charge 0 multiplicity 1
 C         0.954411         2.881848        -1.756481
 C         1.918321         1.912242        -1.304253
 C         3.011495         1.363987        -2.284413
 C         3.195074         0.230223        -1.335304
 O         3.824101        -0.904736        -1.678797
 C         1.742360         0.479423        -0.808240
 C         2.978517         0.684210         0.038343
 O         3.641287        -0.051838         1.048877
 C         2.655056         2.206358         0.030061
 H         0.176169         3.056530        -0.966568
 H         1.371922         3.861849        -1.945805
 H         0.333514         2.612878        -2.616933
 H         2.454869         1.140942        -3.212395
 H         3.841077         2.022418        -2.512131
 H         4.063806        -1.421513        -0.921409
 H         0.776956        -0.196428        -0.765506
 H         2.973907        -0.240044         1.703127
 H         1.898461         2.353493         0.864548
 H         3.452176         2.943760         0.105187
