19
Iteration:  4717
 C         0.858220         2.718526        -1.702613
 C         1.980483         1.896463        -1.363132
 C         3.152881         1.409973        -2.250950
 C         3.261246         0.208557        -1.364698
 O         3.815413        -0.952821        -1.828620
 C         1.823488         0.501293        -0.834372
 C         2.903484         0.753914         0.057626
 O         3.361159        -0.051960         1.147750
 C         2.761638         2.330222         0.089704
 H         0.196726         2.743882        -0.808416
 H         1.103856         3.736203        -1.954130
 H         0.331866         2.304149        -2.601086
 H         2.794533         1.107699        -3.237136
 H         4.044770         2.032783        -2.604189
 H         4.203468        -1.552036        -1.111361
 H         0.958957        -0.273621        -0.865275
 H         3.134047         0.250915         2.082372
 H         2.102951         2.746269         0.855884
 H         3.645716         3.080054         0.166302
