19
Iteration:  1142
 C         0.824243         2.795249        -1.805846
 C         1.902577         1.855108        -1.271854
 C         3.101259         1.521612        -2.282634
 C         3.153914         0.248461        -1.395946
 O         3.730023        -1.049710        -1.740745
 C         1.790611         0.377573        -0.827899
 C         2.979565         0.739489         0.058808
 O         3.554299         0.123072         1.244888
 C         2.846369         2.214375        -0.015589
 H        -0.011286         2.759127        -1.126303
 H         1.031357         3.845644        -1.895631
 H         0.435746         2.356187        -2.781778
 H         2.737764         1.605555        -3.273083
 H         3.956359         2.349136        -2.144671
 H         4.330547        -1.294020        -1.033514
 H         0.911348        -0.127463        -0.719961
 H         3.106118        -0.746549         1.296445
 H         2.259605         2.320927         0.815794
 H         3.751789         2.666697        -0.095285
