19
Iteration:  2589charge 0 multiplicity 1
 C         0.962262         2.886426        -1.801883
 C         1.976033         1.979366        -1.206073
 C         3.022318         1.503650        -2.307986
 C         3.033735         0.175073        -1.421810
 O         3.805419        -0.998095        -1.722559
 C         1.647118         0.344270        -0.732205
 C         2.985718         0.721537        -0.007031
 O         3.645697         0.021733         1.080003
 C         2.785655         2.173868         0.043088
 H         0.135042         3.324651        -1.190861
 H         1.588327         3.737263        -2.175782
 H         0.488645         2.439952        -2.645835
 H         2.525202         1.265040        -3.305241
 H         4.086166         1.881744        -2.201043
 H         3.701618        -1.569320        -0.969298
 H         0.716668        -0.237775        -0.513026
 H         3.095224         0.063437         1.905757
 H         2.142537         2.356728         1.004063
 H         3.595146         2.877629         0.186144
