19
Iteration:  4440
 C         0.771494         2.847410        -1.850364
 C         1.976365         1.951397        -1.271973
 C         3.083357         1.522877        -2.255748
 C         3.192319         0.228348        -1.355245
 O         3.972115        -0.961721        -1.453247
 C         1.782008         0.411399        -0.915867
 C         2.901695         0.682316         0.055353
 O         3.431242        -0.064666         1.101549
 C         2.779145         2.254038         0.044328
 H         0.090424         3.156376        -1.006193
 H         1.053157         3.869909        -2.152258
 H         0.359185         2.292002        -2.681492
 H         2.661088         1.056699        -3.092390
 H         3.738518         2.327433        -2.598316
 H         3.859427        -1.310888        -2.383172
 H         0.880224        -0.219833        -0.967460
 H         3.414223        -1.023691         0.910596
 H         2.176221         2.646995         0.861482
 H         3.723844         2.784836        -0.035114
