19
Iteration:  2836
 C         0.863562         2.878323        -1.599507
 C         1.982242         1.937396        -1.332399
 C         3.053809         1.325713        -2.349592
 C         3.194006         0.236301        -1.352713
 O         3.738301        -1.077252        -1.720364
 C         1.822188         0.466440        -0.805163
 C         3.006057         0.773489         0.086455
 O         3.423283        -0.020103         1.155175
 C         2.827524         2.336439        -0.032866
 H         0.198800         2.970148        -0.722790
 H         1.209823         3.834279        -1.814237
 H         0.337373         2.535489        -2.516908
 H         2.579351         1.183919        -3.333236
 H         3.886455         2.029817        -2.677971
 H         4.697228        -0.921147        -1.617138
 H         1.009001        -0.200790        -0.751070
 H         2.850431        -0.819807         1.049775
 H         2.181349         2.608177         0.844296
 H         3.710281         2.815188        -0.167257
