19
Iteration:  3445charge 0 multiplicity 1
 C         0.903107         2.944172        -1.710618
 C         1.984009         1.982231        -1.291070
 C         2.972364         1.339000        -2.388229
 C         3.140200         0.190204        -1.425114
 O         3.985118        -0.948551        -1.649533
 C         1.730699         0.470507        -0.815767
 C         2.976283         0.718622         0.026241
 O         3.404551        -0.065096         1.147767
 C         2.685394         2.180462         0.052764
 H         0.129705         3.150973        -0.922689
 H         1.489796         3.904611        -1.813880
 H         0.462094         2.580349        -2.688686
 H         2.600195         0.964180        -3.361526
 H         3.898246         1.967602        -2.700303
 H         3.767565        -1.622288        -0.999330
 H         0.995553        -0.268473        -0.490992
 H         4.357521         0.119174         1.316360
 H         2.009999         2.652334         0.855064
 H         3.586941         2.794076         0.070878
