19
Iteration:  4345charge 0 multiplicity 1
 C         0.928972         2.776221        -1.829573
 C         1.975175         1.900976        -1.273286
 C         3.170175         1.464600        -2.308899
 C         3.137729         0.228296        -1.346706
 O         3.878223        -0.909591        -1.670613
 C         1.724545         0.462310        -0.781078
 C         2.946770         0.712639         0.128364
 O         3.448177        -0.053401         1.105636
 C         2.665064         2.176618         0.074706
 H         0.035025         2.928910        -1.192519
 H         1.248817         3.805976        -1.901041
 H         0.719002         2.433621        -2.850973
 H         2.741283         0.903258        -3.264108
 H         4.005758         2.152086        -2.594520
 H         3.839338        -1.309311        -2.579480
 H         0.838111        -0.162975        -0.728096
 H         3.594023         0.398464         1.982108
 H         1.878457         2.552904         0.766719
 H         3.538711         2.969334         0.064379
