19
Iteration:  1501charge 0 multiplicity 1
 C         0.813231         2.867929        -1.634038
 C         1.988406         1.933215        -1.293045
 C         3.004875         1.439156        -2.330202
 C         3.199999         0.205065        -1.424764
 O         3.969605        -0.960449        -1.619291
 C         1.770859         0.410905        -0.705860
 C         3.010249         0.765404         0.043938
 O         3.252472        -0.029797         1.084466
 C         2.892724         2.201726        -0.069946
 H         0.148910         3.053509        -0.789896
 H         1.102978         3.792561        -2.105107
 H         0.107742         2.420838        -2.402176
 H         2.609495         1.058094        -3.343402
 H         3.943892         2.084546        -2.318100
 H         3.314827        -1.670739        -1.889539
 H         1.101914        -0.301161        -0.402731
 H         4.240937        -0.152220         0.991623
 H         2.255849         2.730336         0.656195
 H         3.696069         2.876759        -0.250164
