19
Iteration:  4640charge 0 multiplicity 1
 C         0.953304         2.918689        -1.822798
 C         1.949653         1.912539        -1.395031
 C         3.089653         1.484985        -2.367262
 C         3.091551         0.228260        -1.324565
 O         3.795120        -0.930956        -1.584599
 C         1.709518         0.338373        -0.824731
 C         3.000959         0.740779         0.096959
 O         3.640924        -0.080477         1.099955
 C         2.613522         2.209156         0.070507
 H         0.225391         2.965331        -0.965871
 H         1.581712         3.796875        -1.917045
 H         0.303157         2.753184        -2.716320
 H         2.744460         1.177429        -3.368010
 H         4.094902         2.093269        -2.368673
 H         4.539736        -0.987781        -0.932480
 H         0.806358        -0.284691        -0.890825
 H         3.003755        -0.774076         1.395863
 H         1.698458         2.359577         0.629717
 H         3.371649         3.017903         0.307027
