19
Iteration:  1286
 C         0.835086         2.881116        -1.847587
 C         1.859173         1.911731        -1.215900
 C         3.019232         1.504707        -2.251055
 C         3.335005         0.245594        -1.360309
 O         3.652292        -1.086940        -1.609485
 C         1.840389         0.393999        -0.771800
 C         3.034023         0.693706         0.015173
 O         3.558192         0.053659         1.135374
 C         2.714968         2.254803        -0.014164
 H        -0.118407         3.012225        -1.239655
 H         1.419921         3.782613        -2.012499
 H         0.604422         2.408206        -2.851315
 H         2.575497         1.276242        -3.222264
 H         3.841010         2.356047        -2.169363
 H         4.626470        -1.111705        -1.736137
 H         0.889113        -0.254844        -0.714010
 H         3.734753        -0.874973         0.795451
 H         1.984499         2.348639         0.790089
 H         3.655372         2.891329        -0.079279
