19
Iteration:  1899charge 0 multiplicity 1
 C         0.841019         2.866169        -1.726725
 C         1.970615         1.927749        -1.294651
 C         3.135293         1.458961        -2.310599
 C         3.266918         0.301955        -1.377418
 O         3.719707        -1.011861        -1.680202
 C         1.735819         0.463400        -0.870207
 C         2.895016         0.717426         0.135184
 O         3.609799        -0.047743         1.027459
 C         2.736336         2.183443         0.059030
 H         0.315723         2.952442        -0.776647
 H         1.207802         3.809546        -2.204657
 H         0.216587         2.374158        -2.461660
 H         2.450377         1.197907        -3.151823
 H         3.972677         2.091698        -2.502706
 H         4.000614        -1.457795        -0.888757
 H         0.967914        -0.432072        -1.094487
 H         3.111083        -0.229194         1.860350
 H         2.041239         2.736759         0.798782
 H         3.716919         2.809628         0.100070
