19
Iteration:  4038
 C         0.961009         2.853367        -1.764031
 C         2.021041         1.853412        -1.334278
 C         3.069555         1.446911        -2.257737
 C         3.074722         0.166058        -1.434956
 O         3.796708        -0.975907        -1.604536
 C         1.726687         0.380197        -0.832663
 C         2.902512         0.684545         0.074171
 O         3.485102         0.057315         1.144241
 C         2.720034         2.276398         0.082214
 H         0.163670         2.838967        -0.957050
 H         1.414174         3.859166        -1.938324
 H         0.544898         2.518529        -2.767605
 H         2.590592         1.278470        -3.167641
 H         3.957718         2.045452        -2.555996
 H         4.728882        -0.985736        -1.781591
 H         0.780325        -0.139979        -0.973030
 H         4.351709        -0.275534         0.950944
 H         1.995069         2.583125         0.775252
 H         3.487600         2.969179         0.014582
