19
Iteration:   526charge 0 multiplicity 1
 C         0.805264         2.888468        -1.665071
 C         1.947021         1.924446        -1.278599
 C         2.970598         1.453746        -2.266224
 C         3.160231         0.229564        -1.433662
 O         3.945993        -0.968866        -1.562499
 C         1.685437         0.429384        -0.845401
 C         2.981982         0.739220         0.004547
 O         3.490252        -0.100743         1.034664
 C         2.861241         2.211424        -0.077166
 H         0.202964         3.035770        -0.794195
 H         1.253426         3.804574        -2.106096
 H         0.234254         2.423237        -2.445234
 H         2.496038         1.108933        -3.194891
 H         3.963129         2.090804        -2.385944
 H         4.479195        -0.970945        -0.697025
 H         0.870904        -0.094248        -0.747754
 H         2.710123        -0.333458         1.611404
 H         2.322539         2.620998         0.805139
 H         3.790751         2.836829        -0.250114
