19
Iteration:  1307
 C         0.836663         2.810926        -1.747741
 C         1.952493         1.932269        -1.396775
 C         3.071106         1.440707        -2.362415
 C         3.228208         0.291735        -1.434382
 O         3.655900        -1.005846        -1.702463
 C         1.809628         0.398420        -0.818700
 C         3.024146         0.704458         0.137710
 O         3.497010         0.055801         1.284266
 C         2.760211         2.258829         0.088927
 H         0.100292         2.751944        -0.891429
 H         1.159920         3.835957        -1.932676
 H         0.369884         2.383898        -2.694726
 H         2.643533         0.962415        -3.216644
 H         3.830283         2.165991        -2.699912
 H         4.650985        -1.147109        -1.659295
 H         1.117508        -0.520061        -0.839141
 H         3.840052        -0.844362         1.057630
 H         2.204434         2.725138         0.919945
 H         3.678456         2.774403        -0.324847
