19
Iteration:   157
 C         0.787103         2.892741        -1.704102
 C         1.939806         1.922420        -1.361485
 C         3.122220         1.441647        -2.293746
 C         3.135239         0.193164        -1.437129
 O         3.828798        -0.912511        -1.597822
 C         1.689497         0.392704        -0.835719
 C         2.985079         0.662502         0.013924
 O         3.565327        -0.047780         1.032662
 C         2.781283         2.205036         0.048762
 H         0.288855         3.070439        -0.744808
 H         1.237253         3.859875        -2.055024
 H         0.082118         2.578270        -2.477685
 H         2.679818         1.126999        -3.288244
 H         3.996325         2.124282        -2.252102
 H         4.244415        -1.154967        -0.735125
 H         0.816024        -0.362704        -0.635590
 H         3.445319         0.441199         1.872926
 H         2.128947         2.334764         0.904445
 H         3.733782         2.747603        -0.106658
