19
Iteration:   208
 C         0.821693         2.901001        -1.728300
 C         1.926911         1.874181        -1.323389
 C         3.044383         1.364388        -2.329967
 C         3.219381         0.279668        -1.328684
 O         3.803968        -0.848320        -1.740652
 C         1.805717         0.421726        -0.715324
 C         3.025877         0.736785         0.135081
 O         3.483738        -0.120924         1.071066
 C         2.800677         2.232620        -0.045888
 H        -0.028871         3.064496        -1.037619
 H         1.231251         3.936802        -1.983401
 H         0.417707         2.475620        -2.691236
 H         2.726674         0.876508        -3.285400
 H         3.955785         1.959739        -2.517698
 H         4.159376        -1.303243        -1.003657
 H         0.969040        -0.402168        -0.280546
 H         2.759136        -0.411483         1.725544
 H         2.045634         2.704678         0.667959
 H         3.670563         2.813498        -0.230991
