19
Iteration:  2023charge 0 multiplicity 1
 C         0.847587         2.991433        -1.608015
 C         1.948437         1.814364        -1.308418
 C         3.111814         1.398453        -2.310325
 C         3.179405         0.217734        -1.396378
 O         3.915060        -0.948683        -1.686034
 C         1.740480         0.399275        -0.756701
 C         2.941661         0.732047         0.070255
 O         3.451847        -0.070855         1.012765
 C         2.758436         2.234749        -0.096994
 H         0.540164         3.330614        -0.629189
 H         1.262840         3.870063        -2.117082
 H         0.001493         2.527362        -2.133433
 H         2.720772         1.073854        -3.272987
 H         3.991063         1.963134        -2.427921
 H         4.107485        -1.486021        -0.893899
 H         0.992462        -0.211410        -0.496823
 H         2.754125        -0.073297         1.714425
 H         2.088443         2.778828         0.603191
 H         3.582280         3.005525        -0.089485
