19
Iteration:  1883
 C         0.809756         2.949650        -1.643540
 C         1.934804         1.927210        -1.386855
 C         3.103026         1.394298        -2.273637
 C         3.137108         0.235404        -1.313024
 O         3.826082        -0.944592        -1.680168
 C         1.773799         0.393524        -0.831725
 C         2.966853         0.706408         0.050362
 O         3.540707        -0.126537         1.061011
 C         2.750893         2.251718        -0.058272
 H         0.451139         3.447743        -0.708102
 H         1.308610         3.817103        -2.080676
 H        -0.004441         2.441288        -2.217687
 H         2.971092         1.069799        -3.303578
 H         4.002095         2.123863        -2.397367
 H         4.277057        -1.269242        -0.887241
 H         1.014068        -0.279673        -0.856263
 H         2.965032        -0.147683         1.887569
 H         2.108702         2.630797         0.715982
 H         3.564315         2.927573        -0.157609
