19
Iteration:  1240
 C         0.911049         2.859762        -1.786840
 C         2.000521         1.937726        -1.286811
 C         3.052724         1.396937        -2.325119
 C         3.061554         0.244327        -1.302517
 O         3.852906        -0.980249        -1.575693
 C         1.665307         0.462063        -0.821965
 C         2.837731         0.718103         0.127597
 O         3.620566        -0.016099         1.047782
 C         2.721903         2.201170         0.051929
 H         0.198485         3.031695        -0.965224
 H         1.260664         3.819347        -2.203158
 H         0.253425         2.385083        -2.608146
 H         2.548117         0.949163        -3.131168
 H         4.060421         1.883636        -2.462003
 H         4.806142        -0.889933        -1.567719
 H         0.676208        -0.157873        -0.832862
 H         4.251593        -0.476009         0.448815
 H         1.985531         2.630368         0.769206
 H         3.610126         2.853360        -0.247176
