19
Iteration:  1637charge 0 multiplicity 1
 C         0.814589         2.899830        -1.662715
 C         2.031143         2.000210        -1.267246
 C         3.093025         1.432033        -2.374179
 C         3.080038         0.192811        -1.452954
 O         3.832233        -1.091279        -1.640309
 C         1.766432         0.428590        -0.777690
 C         3.004729         0.780090        -0.022284
 O         3.526387        -0.027509         1.076753
 C         2.754769         2.220526         0.018927
 H         0.052076         2.828662        -0.898176
 H         1.130424         3.910721        -1.955535
 H         0.329188         2.456179        -2.488924
 H         2.624134         1.371627        -3.449218
 H         3.986563         2.114777        -2.239579
 H         4.519166        -1.013051        -0.914488
 H         0.948562        -0.198713        -0.484751
 H         2.792021        -0.322922         1.690935
 H         1.977430         2.369534         0.746333
 H         3.611675         2.858791         0.076429
