19
Iteration:  4119
 C         0.852608         2.794198        -1.775417
 C         2.007059         1.989813        -1.348270
 C         3.068849         1.431293        -2.319920
 C         3.167410         0.221097        -1.362689
 O         3.930493        -0.919418        -1.618136
 C         1.737045         0.457693        -0.887318
 C         2.964954         0.732695         0.102238
 O         3.430113         0.025180         1.181785
 C         2.761787         2.175186         0.056834
 H         0.213430         3.109580        -0.952146
 H         1.253994         3.768187        -2.143317
 H         0.237511         2.310373        -2.525848
 H         2.526880         1.217538        -3.249427
 H         4.031328         1.841375        -2.345259
 H         3.342748        -1.624101        -1.889952
 H         0.924980        -0.201364        -0.942883
 H         3.315423        -0.911482         1.033070
 H         2.195236         2.447218         0.979961
 H         3.719592         2.666529         0.056766
