19
Iteration:  1204charge 0 multiplicity 1
 C         0.834226         2.876507        -1.687800
 C         1.917518         1.933288        -1.241285
 C         3.027868         1.458440        -2.413020
 C         3.203123         0.236959        -1.461533
 O         3.849741        -1.046580        -1.556031
 C         1.824283         0.371653        -0.796728
 C         3.114580         0.776889         0.068681
 O         3.329721         0.010086         1.210567
 C         2.779395         2.195086        -0.075460
 H         0.209728         3.124536        -0.818399
 H         1.262684         3.834014        -2.128788
 H         0.189158         2.363326        -2.403651
 H         2.405117         1.298576        -3.341669
 H         3.869658         1.977964        -2.684744
 H         4.640822        -0.747510        -1.991594
 H         1.155347        -0.374334        -0.623017
 H         3.500856        -0.905515         0.858034
 H         2.255863         2.625452         0.860219
 H         3.463734         3.127189        -0.282959
