19
Iteration:  4915
 C         0.810952         2.892705        -1.813464
 C         1.898878         1.900992        -1.304861
 C         3.036161         1.431287        -2.295556
 C         3.140241         0.202938        -1.404089
 O         3.906360        -0.910614        -1.585761
 C         1.717632         0.445914        -0.807855
 C         3.051260         0.681839         0.036878
 O         3.556901        -0.089288         1.118427
 C         2.766757         2.256882        -0.011732
 H         0.118728         3.321850        -1.077785
 H         1.501840         3.670225        -2.095238
 H         0.102511         2.728016        -2.678825
 H         2.563510         1.362218        -3.232260
 H         3.966539         1.920144        -2.117302
 H         4.029064        -1.252172        -0.664469
 H         0.890616        -0.309191        -0.601171
 H         2.859741        -0.743254         1.212120
 H         2.093242         2.468280         0.814390
 H         3.648258         3.008873        -0.258588
