19
Iteration:  1701charge 0 multiplicity 1
 C         0.866126         2.876817        -1.708956
 C         1.988642         2.000530        -1.249653
 C         2.966779         1.367016        -2.354187
 C         3.062647         0.171403        -1.468540
 O         3.892190        -0.906208        -1.712051
 C         1.721800         0.441581        -0.848282
 C         3.030449         0.654213         0.037597
 O         3.476952        -0.007292         1.216804
 C         2.865541         2.175923         0.054372
 H         0.119049         3.272591        -0.964174
 H         1.438335         3.731553        -2.159114
 H         0.270137         2.333996        -2.442773
 H         2.589759         0.953764        -3.324592
 H         3.767814         1.965518        -2.706242
 H         4.677377        -0.745342        -1.165218
 H         0.812484         0.065091        -0.489595
 H         2.662636        -0.462830         1.368614
 H         2.166945         2.480642         0.839720
 H         3.808996         2.698928         0.036246
