19
Iteration:   131charge 0 multiplicity 1
 C         0.859058         2.861841        -1.698330
 C         1.930840         1.920136        -1.314817
 C         3.082244         1.465911        -2.277297
 C         3.255731         0.258157        -1.332288
 O         3.764503        -1.020890        -1.613933
 C         1.765736         0.453363        -0.807047
 C         2.872233         0.708694         0.124844
 O         3.651231        -0.126879         0.965781
 C         2.629802         2.293547        -0.067483
 H         0.194532         3.155153        -0.845583
 H         1.477658         3.727363        -2.095808
 H         0.254952         2.532075        -2.587943
 H         2.674720         1.182223        -3.255852
 H         3.920634         2.230466        -2.390699
 H         4.625726        -1.223050        -1.111261
 H         0.916338        -0.334870        -0.704264
 H         3.275453        -0.206197         1.864534
 H         2.037655         2.760288         0.757708
 H         3.463430         2.922102        -0.179745
