19
Iteration:  4807charge 0 multiplicity 1
 C         0.928050         2.929909        -1.867636
 C         1.994647         1.887728        -1.353680
 C         2.984486         1.439537        -2.269693
 C         3.159725         0.257142        -1.365860
 O         3.850248        -0.908732        -1.568391
 C         1.745085         0.415370        -0.820776
 C         2.966461         0.634769         0.052819
 O         3.598761        -0.056358         1.154704
 C         2.696631         2.166569         0.081749
 H         0.140526         2.889756        -1.132151
 H         1.390333         3.942237        -2.050547
 H         0.468823         2.566662        -2.829970
 H         2.548336         0.982896        -3.202857
 H         3.754442         2.158645        -2.643093
 H         3.859908        -1.216952        -2.527174
 H         0.877616        -0.143654        -0.820001
 H         2.969684         0.052967         1.939525
 H         1.914508         2.337561         0.823243
 H         3.442122         3.023858         0.205947
