19
Iteration:  1970charge 0 multiplicity 1
 C         0.900834         2.833174        -1.757258
 C         1.982341         1.926168        -1.290191
 C         3.015646         1.429302        -2.315857
 C         3.165181         0.252546        -1.317952
 O         3.761463        -0.909919        -1.678788
 C         1.745562         0.448195        -0.816544
 C         2.917404         0.688656         0.122113
 O         3.595932        -0.123445         1.041820
 C         2.738323         2.240503         0.005152
 H         0.065158         2.733859        -1.009194
 H         1.286080         3.898881        -1.714719
 H         0.550830         2.778801        -2.876228
 H         2.626233         1.049837        -3.260308
 H         3.960689         2.040200        -2.400686
 H         4.441171        -1.237091        -1.090941
 H         1.026233        -0.273243        -0.872480
 H         3.054885        -0.068415         1.869164
 H         2.260718         2.830533         0.849456
 H         3.665245         2.881457        -0.242939
