19
Iteration:  4280charge 0 multiplicity 1
 C         0.906899         2.833852        -1.730875
 C         2.017597         1.921431        -1.384177
 C         3.037115         1.535358        -2.294513
 C         3.198142         0.274487        -1.361516
 O         3.929771        -0.967700        -1.556780
 C         1.790706         0.424990        -0.913713
 C         2.931997         0.717146         0.101239
 O         3.444501        -0.018066         1.122808
 C         2.725363         2.175348         0.060830
 H         0.273829         3.176696        -0.910270
 H         1.253378         3.766343        -2.104541
 H         0.332309         2.241721        -2.473214
 H         2.562292         0.953635        -3.071342
 H         3.889599         2.131052        -2.552312
 H         3.275919        -1.629448        -1.928114
 H         1.054672        -0.312254        -0.873104
 H         2.907647        -0.811835         1.255789
 H         1.934084         2.609347         0.718593
 H         3.487219         2.990565        -0.219076
