19
Iteration:  2938charge 0 multiplicity 1
 C         0.926874         2.891295        -1.757409
 C         1.988584         1.957262        -1.292157
 C         3.030949         1.435267        -2.274065
 C         3.109411         0.267666        -1.357295
 O         3.741886        -1.047641        -1.507978
 C         1.682029         0.508348        -0.857732
 C         2.937683         0.732413         0.096465
 O         3.564019        -0.059441         1.029693
 C         2.797005         2.175221         0.058117
 H         0.140494         2.888774        -1.020478
 H         1.287397         3.898666        -1.972968
 H         0.424891         2.423469        -2.557778
 H         2.504040         1.149246        -3.202479
 H         4.050081         2.023235        -2.592628
 H         4.553980        -0.895996        -2.033444
 H         0.876711        -0.193370        -0.866062
 H         3.982021        -0.785403         0.483670
 H         2.198718         2.775832         0.733617
 H         3.649893         2.745884        -0.077797
