19
Iteration:    34charge 0 multiplicity 1
 C         0.817687         2.856788        -1.603869
 C         2.008605         1.926400        -1.358180
 C         3.006060         1.466176        -2.386768
 C         3.226018         0.210058        -1.462390
 O         3.773771        -1.064491        -1.597889
 C         1.844315         0.466953        -0.923174
 C         2.973557         0.700143         0.029013
 O         3.431077         0.092619         1.218661
 C         2.810646         2.189815         0.020959
 H         0.288420         2.976116        -0.659540
 H         1.169128         3.853450        -1.931204
 H         0.117793         2.441900        -2.339160
 H         2.637180         1.160015        -3.373311
 H         3.831487         2.179605        -2.454796
 H         4.793356        -1.056806        -1.592129
 H         0.987911        -0.245732        -0.825622
 H         3.290664        -0.860002         1.207188
 H         1.973136         2.389464         0.680149
 H         3.629006         2.847066         0.188489
