19
Iteration:  2603charge 0 multiplicity 1
 C         0.938619         2.922352        -1.800651
 C         1.932454         1.899272        -1.278013
 C         3.013247         1.384186        -2.185390
 C         3.114193         0.166473        -1.409451
 O         3.740275        -0.992649        -1.739110
 C         1.745625         0.499257        -0.801559
 C         3.037393         0.676153         0.032809
 O         3.610453         0.020169         1.067310
 C         2.776859         2.162613         0.056371
 H         0.219205         3.070501        -1.055389
 H         1.295474         3.955699        -1.987115
 H         0.462041         2.545492        -2.668610
 H         2.628366         1.275837        -3.218226
 H         3.735191         2.134447        -2.426215
 H         3.991263        -1.463783        -0.884534
 H         0.982607        -0.102835        -0.475964
 H         2.975346         0.056440         1.777755
 H         2.046237         2.576144         0.905858
 H         3.597940         2.910208         0.019354
