19
Iteration:  4371charge 0 multiplicity 1
 C         0.839679         2.877389        -1.824151
 C         1.921155         1.924174        -1.303903
 C         3.040158         1.554281        -2.300911
 C         3.258279         0.251473        -1.369079
 O         3.939830        -0.958017        -1.616419
 C         1.788165         0.350707        -0.849041
 C         2.971369         0.629692         0.070955
 O         3.350508        -0.060353         1.189071
 C         2.786664         2.178467         0.037078
 H         0.067292         3.126361        -1.136618
 H         1.159090         3.955255        -1.828400
 H         0.503344         2.595279        -2.833132
 H         2.725135         1.126432        -3.220957
 H         3.967727         2.156534        -2.457271
 H         3.574391        -1.714194        -2.184865
 H         0.903791        -0.327653        -0.805737
 H         3.885100         0.538099         1.799005
 H         2.026271         2.581129         0.796777
 H         3.519121         2.983513        -0.196991
