19
Iteration:  1809charge 0 multiplicity 1
 C         0.869750         2.941800        -1.763963
 C         1.936014         1.852083        -1.349577
 C         3.055906         1.425068        -2.283042
 C         3.135493         0.231226        -1.309087
 O         3.803709        -0.937944        -1.686866
 C         1.753789         0.431413        -0.718040
 C         2.989439         0.774699         0.094012
 O         3.565249        -0.169454         1.039145
 C         2.782677         2.258088        -0.067664
 H         0.114522         2.897965        -0.907806
 H         1.240096         4.018423        -1.806700
 H         0.489532         2.620445        -2.765476
 H         2.762573         1.246798        -3.349209
 H         3.896118         2.137767        -2.105633
 H         4.058835        -1.421467        -0.904250
 H         0.955730        -0.195549        -0.748238
 H         2.901123        -0.361661         1.690614
 H         2.025587         2.687014         0.699398
 H         3.621082         3.038298        -0.061219
