19
Iteration:  4605
 C         0.859103         2.882638        -1.770828
 C         1.959438         1.962038        -1.304978
 C         3.057290         1.512872        -2.240497
 C         3.167400         0.226540        -1.360893
 O         3.927316        -0.985607        -1.580311
 C         1.692291         0.288542        -0.888300
 C         2.928643         0.706599         0.032882
 O         3.468077        -0.033215         0.980314
 C         2.793014         2.242341         0.056126
 H         0.223300         3.320769        -0.953372
 H         1.248736         3.802770        -2.208786
 H         0.347432         2.383504        -2.580753
 H         2.627320         1.293914        -3.215280
 H         4.047299         2.082304        -2.439819
 H         4.194816        -1.339898        -0.739356
 H         0.915123        -0.387163        -0.768246
 H         2.794236        -0.111926         1.694418
 H         2.236366         2.525674         1.005835
 H         3.796125         2.797990         0.132173
