19
Iteration:   813charge 0 multiplicity 1
 C         0.856906         2.842114        -1.704975
 C         1.947509         1.936327        -1.368803
 C         3.114372         1.474312        -2.278461
 C         3.207204         0.249244        -1.343902
 O         3.731535        -1.003819        -1.530939
 C         1.723658         0.447558        -0.873775
 C         2.941072         0.713552         0.031383
 O         3.633355        -0.009853         1.030841
 C         2.692563         2.170965         0.005379
 H         0.064844         3.079063        -0.948857
 H         1.214608         3.867095        -2.063963
 H         0.374773         2.299561        -2.549762
 H         2.814268         1.112598        -3.222858
 H         3.908560         2.228270        -2.528990
 H         4.688427        -0.983245        -1.174512
 H         0.908958        -0.177893        -0.864754
 H         3.044417        -0.439427         1.634506
 H         1.978271         2.447216         0.726058
 H         3.606712         2.703969         0.009444
