19
Iteration:   178charge 0 multiplicity 1
 C         0.876492         2.847166        -1.669399
 C         1.998501         1.982004        -1.227609
 C         2.947508         1.454922        -2.364374
 C         3.132275         0.182405        -1.472668
 O         3.972069        -0.996779        -1.667269
 C         1.699560         0.499984        -0.868684
 C         2.959460         0.641616         0.080398
 O         3.515515        -0.011764         1.074599
 C         2.806692         2.188013         0.061167
 H         0.014313         2.892802        -0.986199
 H         1.173786         3.809570        -2.201084
 H         0.559689         2.193403        -2.512961
 H         2.232537         1.162631        -3.224859
 H         3.857978         2.071655        -2.582088
 H         4.123595        -1.339826        -0.730596
 H         0.545663         0.100280        -0.806135
 H         3.250484         0.329128         1.914838
 H         1.967754         2.515660         0.716539
 H         3.678749         2.772849         0.040526
