19
Iteration:   627
 C         0.882290         2.877822        -1.813937
 C         1.965498         1.904398        -1.242688
 C         3.119145         1.397861        -2.201218
 C         3.102320         0.167720        -1.424292
 O         3.825251        -1.038358        -1.722680
 C         1.730052         0.486487        -0.772975
 C         2.969656         0.708750         0.032769
 O         3.623545         0.006732         1.021336
 C         2.622250         2.241805         0.095739
 H         0.088918         3.013780        -1.068973
 H         1.521680         3.752971        -1.929915
 H         0.530747         2.519287        -2.765621
 H         2.791323         1.159846        -3.259708
 H         3.741654         2.351894        -2.407110
 H         4.669582        -1.240885        -1.240581
 H         0.713371         0.007812        -0.325629
 H         3.107291        -0.100954         1.810386
 H         1.775176         2.541689         0.859103
 H         3.429375         3.003383         0.077536
