19
Iteration:  4516charge 0 multiplicity 1
 C         0.853485         2.867956        -1.820621
 C         1.963009         1.905647        -1.351151
 C         3.117610         1.513865        -2.274089
 C         3.181467         0.241295        -1.339507
 O         3.896608        -0.939921        -1.677252
 C         1.787139         0.361342        -0.897441
 C         2.965720         0.746679         0.101576
 O         3.421993        -0.012427         1.208618
 C         2.675570         2.144960         0.049814
 H         0.019726         2.959362        -1.036281
 H         1.344301         3.868207        -1.886291
 H         0.385967         2.633414        -2.788937
 H         2.650420         1.379108        -3.268137
 H         4.208651         1.887269        -2.254189
 H         3.404000        -1.671298        -1.329123
 H         0.850897        -0.306110        -0.823161
 H         4.370945        -0.222089         1.081269
 H         1.861930         2.372899         0.802468
 H         3.518276         2.886567        -0.001413
