19
Iteration:  1824charge 0 multiplicity 1
 C         0.880947         2.904855        -1.750619
 C         1.930533         1.966159        -1.337083
 C         2.990750         1.377191        -2.392668
 C         3.167637         0.291133        -1.349196
 O         3.875453        -0.826580        -1.675609
 C         1.741835         0.470361        -0.780026
 C         2.958676         0.661683         0.150789
 O         3.540193        -0.206923         1.112417
 C         2.799396         2.231825        -0.007987
 H         0.152935         3.068859        -0.942739
 H         1.553569         3.761401        -2.033049
 H         0.384940         2.657476        -2.712556
 H         2.432340         0.768558        -3.181463
 H         3.776050         1.951209        -2.791651
 H         4.018901        -1.363251        -0.839244
 H         0.817432        -0.243528        -0.533243
 H         2.858819        -0.479598         1.743361
 H         2.223583         2.740798         0.769660
 H         3.740576         2.766233        -0.252040
