19
Iteration:   765
 C         0.942313         2.846073        -1.869429
 C         1.898631         1.882992        -1.265996
 C         2.988493         1.503629        -2.232912
 C         3.160442         0.222184        -1.356523
 O         3.801312        -0.974150        -1.670759
 C         1.718176         0.421097        -0.752235
 C         3.031325         0.662232         0.006357
 O         3.569479         0.017813         1.050055
 C         2.738424         2.149161         0.041455
 H         0.162879         3.052161        -1.073108
 H         1.497835         3.856753        -1.916258
 H         0.407107         2.503432        -2.790069
 H         2.690750         1.405268        -3.314473
 H         3.922379         2.087608        -2.381437
 H         4.496068        -1.103525        -1.049289
 H         0.778850        -0.264242        -0.566031
 H         3.087852         0.291838         1.881665
 H         1.972301         2.157630         0.874103
 H         3.559436         2.988329         0.027889
