19
Iteration:  4498charge 0 multiplicity 1
 C         0.879438         2.915705        -1.833788
 C         1.958548         1.953957        -1.263373
 C         3.203747         1.355648        -2.274742
 C         3.176623         0.213818        -1.346527
 O         3.937636        -0.955562        -1.677168
 C         1.763635         0.436535        -0.861721
 C         2.835266         0.649079         0.134251
 O         3.511945        -0.009374         1.136657
 C         2.578066         2.281179         0.098977
 H        -0.086916         2.801969        -1.232897
 H         1.200634         3.912182        -2.088394
 H         0.276975         2.586326        -2.720554
 H         2.994389         0.845477        -3.189338
 H         3.958491         2.147207        -2.254264
 H         3.229287        -1.522180        -1.949811
 H         0.987851        -0.311773        -0.922028
 H         4.433920        -0.194122         0.849835
 H         1.856321         2.554291         0.799872
 H         3.456717         2.879659         0.146243
