19
Iteration:   514
 C         0.849825         2.898321        -1.718687
 C         1.926011         1.968434        -1.330481
 C         2.980971         1.393325        -2.383071
 C         3.138786         0.215638        -1.389777
 O         3.884761        -0.909051        -1.585790
 C         1.794647         0.367104        -0.842683
 C         2.878433         0.708119         0.108826
 O         3.559700        -0.124142         1.076683
 C         2.821044         2.264888         0.007447
 H         0.242523         3.139569        -0.852192
 H         1.183951         3.948478        -1.960426
 H         0.103716         2.562831        -2.448114
 H         2.485621         1.328936        -3.346474
 H         3.873682         2.136630        -2.621059
 H         4.345890        -1.088021        -0.765144
 H         1.121012        -0.354442        -0.911338
 H         2.919097        -0.488232         1.686184
 H         2.338200         2.806852         0.810883
 H         3.842060         2.671852        -0.250999
