19
Iteration:  3034
 C         0.896252         2.853833        -1.782946
 C         1.928624         1.925297        -1.235454
 C         3.081302         1.517862        -2.246831
 C         3.152547         0.223177        -1.442806
 O         3.710038        -1.050475        -1.745925
 C         1.714269         0.479827        -0.805627
 C         3.082967         0.653235        -0.005008
 O         3.480192         0.117238         1.216678
 C         2.818283         2.102151         0.025643
 H         0.131107         3.081482        -0.937014
 H         1.374107         3.764446        -2.092031
 H         0.262632         2.417295        -2.563180
 H         2.688742         1.168590        -3.231491
 H         4.032135         1.944271        -2.306166
 H         4.646935        -0.877413        -1.731468
 H         0.935155        -0.178758        -0.685630
 H         2.999327        -0.715308         1.471918
 H         2.285277         2.461119         0.999755
 H         3.745361         2.732389         0.076194
