19
Iteration:  3818
 C         0.804510         2.802754        -1.791448
 C         1.976589         2.019559        -1.302172
 C         3.085126         1.423016        -2.324541
 C         3.223093         0.257924        -1.419012
 O         3.794269        -1.015787        -1.705716
 C         1.798467         0.567313        -0.788487
 C         3.097476         0.705410         0.023476
 O         3.362756        -0.036444         1.202257
 C         2.745871         2.169579         0.031677
 H         0.125932         3.126135        -0.930145
 H         1.100912         3.751598        -2.236343
 H         0.230692         2.094213        -2.420473
 H         2.654590         1.039292        -3.238404
 H         3.928921         2.113448        -2.582740
 H         3.882261        -1.547993        -0.865214
 H         0.907578        -0.055553        -0.848385
 H         4.318564        -0.207397         1.462575
 H         2.079235         2.317940         0.924362
 H         3.721318         2.789129         0.249541
