19
Iteration:  3898
 C         0.926407         2.918949        -1.788583
 C         1.963015         1.953658        -1.291159
 C         2.968941         1.402017        -2.383180
 C         3.186657         0.225079        -1.417217
 O         3.884311        -0.984917        -1.597569
 C         1.761053         0.379695        -0.739763
 C         2.919883         0.691732         0.054843
 O         3.456261        -0.044506         1.074621
 C         2.747854         2.243665         0.067720
 H         0.169559         3.045481        -1.031559
 H         1.346099         3.895101        -1.896934
 H         0.547375         2.752763        -2.783274
 H         2.396884         1.197035        -3.323391
 H         3.798380         2.020714        -2.778270
 H         4.032333        -1.434438        -0.716202
 H         0.911513        -0.277425        -0.732745
 H         4.447367        -0.138396         1.234803
 H         1.931301         2.440807         0.875055
 H         3.521943         3.115298         0.104769
