19
Iteration:   186
 C         0.883274         2.809299        -1.718905
 C         2.040664         1.959336        -1.250475
 C         2.935886         1.415383        -2.313914
 C         3.134265         0.153511        -1.451371
 O         3.946958        -0.955786        -1.705278
 C         1.707287         0.475742        -0.840250
 C         2.950711         0.734543         0.052855
 O         3.510241        -0.065771         1.102679
 C         2.812620         2.273871         0.082747
 H         0.097843         2.964016        -0.951451
 H         1.177155         3.884062        -1.993321
 H         0.395367         2.341482        -2.628367
 H         2.265453         1.091074        -3.145330
 H         3.687311         2.090619        -2.768326
 H         4.151354        -1.378785        -0.796883
 H         0.670390        -0.133683        -1.054309
 H         3.115006         0.156713         1.923721
 H         2.126200         2.510777         0.964650
 H         3.673864         2.883683        -0.025257
