19
Iteration:  4307
 C         0.802983         2.874298        -1.822405
 C         1.957167         1.910145        -1.325862
 C         3.130572         1.533057        -2.265286
 C         3.166149         0.262848        -1.421136
 O         3.876508        -0.951501        -1.531136
 C         1.761792         0.364056        -0.849018
 C         2.974508         0.689592         0.078156
 O         3.524895        -0.038156         1.113097
 C         2.754326         2.181520         0.076196
 H        -0.058186         3.239358        -1.186166
 H         1.433847         3.788196        -2.192408
 H         0.387542         2.372949        -2.714635
 H         2.814044         1.271122        -3.308224
 H         4.213895         1.880182        -2.166532
 H         3.452537        -1.351316        -2.367943
 H         0.798296        -0.280072        -0.738242
 H         2.767181        -0.346823         1.679272
 H         2.042853         2.461649         0.835961
 H         3.407074         2.941859        -0.172577
