19
Iteration:  3110charge 0 multiplicity 1
 C         0.815636         2.928034        -1.753249
 C         1.964803         1.917907        -1.310329
 C         3.050188         1.471390        -2.336682
 C         3.108552         0.166223        -1.447087
 O         3.870566        -1.005118        -1.546123
 C         1.750381         0.422250        -0.876894
 C         2.984986         0.746312         0.040777
 O         3.496718        -0.114236         0.998468
 C         2.832186         2.249878         0.093182
 H         0.063320         3.120429        -0.897592
 H         1.274460         3.874216        -1.960639
 H         0.361833         2.743782        -2.719231
 H         2.422147         1.359926        -3.269187
 H         3.850422         2.141243        -2.260046
 H         3.957793        -1.302203        -0.576345
 H         0.980472        -0.300964        -0.607850
 H         3.252845        -0.041614         1.914205
 H         2.450770         2.550585         1.086630
 H         3.672370         2.859972        -0.257988
