19
Iteration:  1126
 C         0.829043         2.801234        -1.829210
 C         1.933190         1.982396        -1.254887
 C         3.074124         1.512578        -2.254715
 C         3.218250         0.212892        -1.401679
 O         3.738827        -1.070679        -1.655955
 C         1.778902         0.431341        -0.749215
 C         3.020423         0.704774        -0.002412
 O         3.577367         0.079317         1.055071
 C         2.717022         2.190620         0.090123
 H        -0.115446         2.953080        -1.238803
 H         1.277820         3.843100        -2.004068
 H         0.557689         2.501942        -2.825573
 H         2.608743         1.114175        -3.201539
 H         3.933053         2.106230        -2.295956
 H         4.480186        -1.236840        -1.000221
 H         1.001805        -0.437996        -0.679651
 H         3.050065        -0.686449         1.405191
 H         2.016229         2.567940         0.958745
 H         3.521989         3.036866        -0.064892
