19
Iteration:   816charge 0 multiplicity 1
 C         0.854726         2.849216        -1.713942
 C         1.928262         1.950365        -1.358977
 C         3.092732         1.510642        -2.293200
 C         3.222660         0.240615        -1.379982
 O         3.724642        -0.993403        -1.516338
 C         1.754406         0.441160        -0.859100
 C         2.952024         0.710145         0.014050
 O         3.614796        -0.005418         1.043725
 C         2.708805         2.156206        -0.011443
 H         0.131214         3.010038        -0.922315
 H         1.231854         3.760539        -2.024726
 H         0.458027         2.211200        -2.539063
 H         2.765613         1.148446        -3.318465
 H         4.021034         2.143016        -2.431016
 H         4.614472        -0.987694        -1.127732
 H         0.834199        -0.338552        -0.734862
 H         2.946487        -0.411024         1.642537
 H         2.005343         2.410245         0.812127
 H         3.638178         2.665991         0.050993
