19
Iteration:  4911
 C         0.798662         2.883716        -1.813280
 C         1.905071         1.893371        -1.262124
 C         3.025102         1.475140        -2.300406
 C         3.189236         0.227427        -1.421683
 O         3.887340        -0.945511        -1.596122
 C         1.710914         0.418722        -0.795853
 C         3.071094         0.669223         0.025701
 O         3.532977        -0.072722         1.138446
 C         2.760336         2.273513        -0.040654
 H         0.198354         3.338939        -0.982544
 H         1.448531         3.736140        -2.074445
 H         0.235976         2.555061        -2.720039
 H         2.628760         1.286845        -3.356053
 H         4.028397         2.051848        -2.296253
 H         3.979444        -1.276493        -0.667331
 H         0.890421        -0.211719        -0.672794
 H         2.842421        -0.779701         1.285205
 H         2.166378         2.513061         0.856957
 H         3.577850         2.911719        -0.134328
