19
Iteration:  1067
 C         0.830803         2.911217        -1.704240
 C         1.919271         1.947280        -1.282824
 C         2.998485         1.429070        -2.241346
 C         3.087434         0.182747        -1.373898
 O         3.986089        -0.942153        -1.577203
 C         1.685999         0.318647        -0.901181
 C         2.982508         0.713444        -0.006325
 O         3.493893        -0.037504         1.018937
 C         2.806118         2.191198         0.002495
 H         0.180498         3.401249        -0.960692
 H         1.437238         3.671673        -2.177176
 H         0.208600         2.489200        -2.567171
 H         2.640564         1.229226        -3.228915
 H         3.884655         2.067295        -2.467446
 H         4.158116        -1.192326        -0.626484
 H         0.919722        -0.330704        -0.668300
 H         3.442227         0.471578         1.849437
 H         2.216459         2.633889         0.862684
 H         3.746372         2.830033        -0.384153
