19
Iteration:  1026
 C         0.861610         2.815730        -1.709915
 C         1.948552         1.926688        -1.273190
 C         3.078548         1.293410        -2.335869
 C         3.193564         0.252529        -1.335066
 O         3.847066        -0.894667        -1.804567
 C         1.793799         0.422396        -0.851935
 C         2.995819         0.754079         0.075971
 O         3.458427        -0.012887         1.195657
 C         2.793982         2.321617        -0.020801
 H         0.201755         2.937132        -0.820563
 H         0.980348         3.859779        -1.980307
 H         0.211881         2.336637        -2.441809
 H         2.587492         0.618429        -3.087269
 H         3.956230         1.777027        -2.575504
 H         3.988586        -1.606597        -1.169154
 H         1.070506        -0.257504        -0.755109
 H         2.792978        -0.127653         1.875867
 H         1.969698         2.528922         0.685823
 H         3.611444         2.954075         0.030260
