19
Iteration:  3738
 C         0.953229         2.940450        -1.761198
 C         1.932220         1.910071        -1.239405
 C         2.960008         1.375364        -2.366894
 C         3.129095         0.141549        -1.432098
 O         3.901337        -0.955000        -1.589589
 C         1.785483         0.437815        -0.804517
 C         2.960036         0.733805         0.045723
 O         3.434923        -0.081910         1.097172
 C         2.721431         2.248674         0.027180
 H         0.106734         3.036128        -1.041403
 H         1.526072         3.956683        -1.787668
 H         0.734494         2.739886        -2.839064
 H         2.221679         1.233667        -3.225876
 H         3.812343         1.912939        -2.797985
 H         4.377641        -1.286771        -0.772763
 H         0.917888        -0.225470        -0.870010
 H         4.393229         0.182510         1.215226
 H         1.955282         2.386864         0.813631
 H         3.510850         3.121877         0.177116
