19
Iteration:  3063
 C         0.873749         2.853055        -1.796773
 C         1.976012         1.912889        -1.310393
 C         3.103978         1.478164        -2.262757
 C         3.126293         0.225122        -1.408670
 O         3.674915        -1.009783        -1.741082
 C         1.755526         0.376195        -0.823775
 C         2.959084         0.782612         0.183579
 O         3.607011        -0.037728         1.100769
 C         2.762638         2.296342         0.064784
 H         0.318360         2.960433        -0.870615
 H         1.256787         3.827906        -2.138922
 H         0.331378         2.487409        -2.693984
 H         2.701335         1.039302        -3.173136
 H         4.185911         1.768396        -2.096417
 H         4.587948        -1.021724        -1.344920
 H         0.822192        -0.222004        -0.773607
 H         3.036228        -0.797978         1.358071
 H         2.050412         2.784908         0.623898
 H         3.748471         2.771578         0.216881
