19
Iteration:  4113charge 0 multiplicity 1
 C         0.846697         2.804262        -1.806217
 C         2.015083         2.006929        -1.261027
 C         3.088853         1.396910        -2.339752
 C         3.161464         0.237485        -1.377305
 O         3.927319        -0.919537        -1.593996
 C         1.780528         0.416056        -0.856276
 C         2.922163         0.708333         0.056015
 O         3.422077         0.032393         1.158301
 C         2.774138         2.192460         0.059193
 H         0.329435         3.044974        -0.845301
 H         1.188694         3.791489        -2.114216
 H         0.223672         2.299330        -2.558052
 H         2.505631         1.280388        -3.295105
 H         4.069050         2.013490        -2.478278
 H         3.345518        -1.603941        -2.041676
 H         0.885464        -0.269150        -0.769455
 H         3.186365        -0.936037         1.019253
 H         2.096929         2.554841         0.842986
 H         3.760190         2.807016         0.141093
