19
Iteration:  1134charge 0 multiplicity 1
 C         0.799571         2.823520        -1.819280
 C         1.932400         1.899313        -1.261198
 C         3.085376         1.552072        -2.252915
 C         3.222869         0.170823        -1.396131
 O         3.733370        -1.060188        -1.688176
 C         1.756126         0.424060        -0.765567
 C         3.001166         0.726691         0.038750
 O         3.564536         0.121119         1.117500
 C         2.755302         2.198910         0.027285
 H        -0.135910         2.820590        -1.216381
 H         1.272141         3.783081        -1.964876
 H         0.608751         2.366057        -2.807894
 H         2.748986         1.497071        -3.339185
 H         3.945443         2.221255        -2.426585
 H         4.397010        -1.371336        -1.033473
 H         1.003387        -0.419423        -0.656190
 H         3.000579        -0.689746         1.229877
 H         2.256255         2.374257         1.053619
 H         3.741997         2.832163         0.057268
