19
Iteration:  2816charge 0 multiplicity 1
 C         0.827737         2.890078        -1.656506
 C         2.030688         1.922055        -1.257393
 C         3.002521         1.444982        -2.367627
 C         3.158251         0.248470        -1.482606
 O         3.730846        -1.052574        -1.556755
 C         1.835727         0.428764        -0.822677
 C         3.099811         0.717341        -0.043578
 O         3.391223         0.014276         1.100170
 C         2.887216         2.191047         0.024861
 H         0.064639         2.863994        -0.824349
 H         1.126032         3.925590        -1.739861
 H         0.324690         2.499925        -2.538595
 H         2.510895         1.300377        -3.306517
 H         3.861952         2.098280        -2.720435
 H         4.711867        -1.083479        -1.338225
 H         1.030113        -0.164842        -0.340988
 H         2.635742        -0.536266         1.228120
 H         2.163969         2.615838         0.752647
 H         3.754434         2.905435         0.016191
