19
Iteration:  3297charge 0 multiplicity 1
 C         0.954504         2.914279        -1.688088
 C         1.995410         1.923537        -1.309651
 C         2.976525         1.372435        -2.431051
 C         3.136437         0.214605        -1.331048
 O         3.948156        -0.897724        -1.684665
 C         1.733664         0.439653        -0.794873
 C         2.914794         0.674439         0.051783
 O         3.378985        -0.127317         1.137915
 C         2.755457         2.244793         0.016466
 H         0.306140         3.176384        -0.795749
 H         1.330167         3.904356        -1.961158
 H         0.518463         2.653340        -2.646585
 H         2.410133         0.866657        -3.337734
 H         3.885564         1.962714        -2.694070
 H         4.190398        -1.327260        -0.829453
 H         0.908203        -0.143018        -0.607784
 H         4.176767         0.435664         1.209779
 H         2.109695         2.385226         0.860171
 H         3.564047         3.003370         0.003020
