19
Iteration:  1695charge 0 multiplicity 1
 C         0.868127         2.846479        -1.717828
 C         1.983757         1.978792        -1.272752
 C         2.972528         1.349268        -2.389770
 C         3.101667         0.185116        -1.421894
 O         3.890163        -0.891594        -1.729367
 C         1.735741         0.455505        -0.847442
 C         2.984345         0.672434         0.096862
 O         3.458977         0.011533         1.200014
 C         2.905612         2.137083         0.050227
 H         0.339802         3.307192        -0.887528
 H         1.233981         3.811393        -2.091712
 H         0.150494         2.495545        -2.490110
 H         2.302582         1.084264        -3.245327
 H         3.797762         2.035416        -2.826370
 H         4.578900        -0.786068        -1.077381
 H         0.736958        -0.069037        -0.690641
 H         2.745267        -0.619903         1.429773
 H         2.274436         2.531085         0.879122
 H         3.877480         2.721629         0.116741
