19
Iteration:  2102
 C         0.842985         2.877542        -1.763484
 C         1.960592         1.940067        -1.315278
 C         3.149018         1.459256        -2.246145
 C         3.128640         0.260228        -1.362711
 O         3.697002        -1.011961        -1.694001
 C         1.781466         0.458968        -0.766233
 C         2.965507         0.743997         0.124275
 O         3.675863        -0.127893         1.002949
 C         2.652558         2.291684        -0.011003
 H        -0.019776         2.890729        -1.082588
 H         1.378963         3.806981        -1.872399
 H         0.472918         2.473469        -2.732379
 H         2.961187         1.178700        -3.233538
 H         4.075933         2.012497        -2.201881
 H         4.218404        -1.268588        -0.862389
 H         0.814166        -0.249509        -0.658361
 H         3.118410        -0.258975         1.796329
 H         1.978400         2.280624         0.763863
 H         3.508665         2.918761        -0.163999
