19
Iteration:  3928charge 0 multiplicity 1
 C         0.860207         2.915269        -1.703566
 C         1.909988         1.947598        -1.294055
 C         3.062609         1.390077        -2.340421
 C         3.222991         0.176867        -1.352176
 O         3.871617        -0.938723        -1.601085
 C         1.747123         0.384246        -0.853054
 C         2.965464         0.706853         0.064164
 O         3.399119        -0.096859         1.085215
 C         2.795243         2.270814        -0.080566
 H         0.325624         3.122227        -0.730022
 H         1.169588         3.973812        -1.871927
 H         0.217825         2.585223        -2.567902
 H         2.670520         1.085889        -3.247478
 H         3.914427         2.018798        -2.689586
 H         4.002548        -1.396834        -0.719337
 H         0.823136        -0.190753        -0.648518
 H         4.246678         0.106388         1.570519
 H         2.286427         2.619591         0.795544
 H         3.484267         3.065262        -0.308616
