19
Iteration:  3947
 C         0.790345         2.894893        -1.660205
 C         1.978418         1.913137        -1.418411
 C         3.085343         1.367110        -2.277851
 C         3.087380         0.166283        -1.396384
 O         3.956598        -1.010195        -1.683197
 C         1.758004         0.552459        -0.795738
 C         2.899306         0.745355         0.035031
 O         3.406132        -0.066271         1.106048
 C         2.853987         2.219548         0.050208
 H         0.067503         3.094558        -0.806210
 H         0.957966         3.880352        -2.211436
 H         0.327474         2.306964        -2.494422
 H         2.722670         1.208558        -3.350242
 H         3.983420         1.987425        -2.416197
 H         4.074221        -1.536317        -0.868867
 H         0.905234        -0.147561        -0.662836
 H         3.947303         0.553909         1.587277
 H         2.195604         2.751592         0.704053
 H         3.820203         2.739992        -0.073540
