19
Iteration:  1238
 C         0.899871         2.856829        -1.793000
 C         1.979887         1.933435        -1.300055
 C         3.061976         1.410745        -2.316176
 C         3.080335         0.251250        -1.295973
 O         3.852482        -0.992548        -1.575769
 C         1.653302         0.460153        -0.830911
 C         2.851457         0.716530         0.141218
 O         3.605600        -0.017808         1.048209
 C         2.736970         2.198672         0.045371
 H         0.275123         3.045333        -0.926660
 H         1.299177         3.838064        -2.159931
 H         0.247943         2.383659        -2.579641
 H         2.527305         0.996755        -3.166807
 H         3.969199         1.886604        -2.553556
 H         4.795365        -0.807145        -1.532822
 H         0.775634        -0.157263        -0.760687
 H         4.212686        -0.417894         0.434180
 H         1.994511         2.607588         0.776831
 H         3.643063         2.785817        -0.266799
