19
Iteration:  4523
 C         0.921485         2.839363        -1.794501
 C         1.964061         1.885439        -1.280821
 C         3.063159         1.523051        -2.272034
 C         3.169326         0.254674        -1.409881
 O         3.901593        -0.932006        -1.661528
 C         1.799103         0.404107        -0.900815
 C         3.008430         0.678328         0.076472
 O         3.371251        -0.000507         1.207009
 C         2.677885         2.160229        -0.010569
 H         0.112553         2.767914        -1.151170
 H         1.302930         3.856313        -1.962858
 H         0.299504         2.626518        -2.675163
 H         2.797408         1.326899        -3.354511
 H         3.944890         2.133687        -2.128583
 H         3.397774        -1.527148        -1.057998
 H         1.030101        -0.295032        -0.683342
 H         4.336097        -0.299992         1.209612
 H         1.916569         2.408222         0.784094
 H         3.495194         2.910674         0.015735
