19
Iteration:  3267
 C         0.849953         2.975291        -1.762824
 C         1.930605         1.925363        -1.340798
 C         3.010024         1.484360        -2.309685
 C         3.165339         0.217477        -1.311484
 O         3.847458        -0.989388        -1.624335
 C         1.798995         0.389743        -0.793059
 C         2.973386         0.743405         0.109577
 O         3.470395        -0.179842         1.012540
 C         2.782807         2.233081        -0.038415
 H         0.033939         3.016308        -1.079485
 H         1.379175         3.973126        -1.840407
 H         0.333872         2.678688        -2.694700
 H         2.786136         1.164647        -3.317203
 H         3.860623         2.160680        -2.308338
 H         3.947493        -1.456253        -0.799828
 H         1.141595        -0.387488        -0.599484
 H         3.746821         0.423103         1.711908
 H         2.182885         2.528827         0.866282
 H         3.606380         2.900304        -0.179736
