19
Iteration:  2208
 C         0.900867         2.833605        -1.767108
 C         2.021623         1.925319        -1.270231
 C         2.973191         1.471576        -2.316855
 C         3.155445         0.254402        -1.355895
 O         3.808861        -0.930643        -1.674157
 C         1.764220         0.482281        -0.830043
 C         2.975400         0.702036         0.045334
 O         3.513388        -0.100633         1.087931
 C         2.880223         2.173909         0.048887
 H         0.217952         3.202149        -0.972912
 H         1.104981         3.769572        -2.410089
 H         0.297174         2.177280        -2.454118
 H         2.415533         1.063729        -3.238545
 H         3.663377         2.341850        -2.577896
 H         3.898296        -1.258570        -0.712024
 H         0.751263        -0.107077        -0.699587
 H         2.820015        -0.468589         1.669379
 H         2.159153         2.734922         0.703927
 H         3.716507         2.853461         0.035744
