19
Iteration:  4459
 C         0.872567         2.828397        -1.889791
 C         1.873820         1.947256        -1.229856
 C         3.039313         1.535747        -2.319396
 C         3.184371         0.307937        -1.447028
 O         3.882742        -0.939778        -1.423988
 C         1.761809         0.403586        -0.838931
 C         2.992416         0.678859         0.033052
 O         3.452036        -0.021958         1.121287
 C         2.750422         2.110720         0.072639
 H         0.025686         2.991353        -1.221215
 H         1.336007         3.825793        -2.176248
 H         0.524163         2.303781        -2.792484
 H         2.834197         1.587683        -3.438291
 H         4.074811         2.008119        -2.175353
 H         4.044060        -1.251836        -2.369603
 H         1.030001        -0.325855        -0.704999
 H         3.714245        -0.948811         0.841740
 H         2.072032         2.451012         0.956573
 H         3.528697         2.928611        -0.010511
