19
Iteration:  1207
 C         0.820214         2.904697        -1.711349
 C         1.917041         1.922984        -1.237983
 C         2.990060         1.458292        -2.395045
 C         3.185837         0.258050        -1.462382
 O         3.844570        -1.028557        -1.534452
 C         1.823267         0.356456        -0.798311
 C         3.116178         0.742857         0.077107
 O         3.343504         0.006654         1.201274
 C         2.808261         2.199954        -0.061050
 H         0.252390         3.190662        -0.842027
 H         1.269436         3.830178        -2.090676
 H         0.180662         2.308601        -2.453931
 H         2.592593         1.301414        -3.368284
 H         3.988103         1.966796        -2.672417
 H         4.738706        -0.800013        -1.969284
 H         1.053068        -0.406490        -0.656912
 H         3.612253        -0.858439         0.732048
 H         2.171357         2.555217         0.801448
 H         3.435969         3.070084        -0.447622
