19
Iteration:  2275charge 0 multiplicity 1
 C         0.889412         2.884392        -1.759916
 C         1.985898         1.914938        -1.276732
 C         3.046931         1.453459        -2.329429
 C         3.161830         0.282419        -1.377174
 O         3.664120        -0.994376        -1.625673
 C         1.772622         0.394196        -0.845777
 C         2.935081         0.702905         0.096534
 O         3.640385        -0.079905         1.076713
 C         2.722744         2.203767         0.059744
 H         0.084256         2.923223        -1.044521
 H         1.332749         3.877680        -1.854142
 H         0.718945         2.678675        -2.814137
 H         2.687349         1.235004        -3.350774
 H         3.943218         2.185010        -2.493049
 H         4.593536        -1.158507        -1.405245
 H         1.024681        -0.293446        -1.215499
 H         3.159551         0.125612         1.904050
 H         2.038427         2.663769         0.837394
 H         3.607484         2.838384         0.031443
