19
Iteration:  4339charge 0 multiplicity 1
 C         0.897767         2.793119        -1.834115
 C         2.023266         1.884378        -1.283074
 C         3.106734         1.463972        -2.269561
 C         3.231991         0.231788        -1.348625
 O         3.880509        -0.945488        -1.663423
 C         1.674651         0.473271        -0.779305
 C         2.918557         0.690831         0.109707
 O         3.478570        -0.056214         1.087440
 C         2.684496         2.222021         0.091301
 H        -0.002206         2.760527        -1.216663
 H         1.424947         3.780082        -2.035359
 H         0.588526         2.501678        -2.862082
 H         2.827921         1.124439        -3.215097
 H         4.101795         1.896931        -2.489079
 H         3.797982        -1.145254        -2.580513
 H         0.667832        -0.042942        -0.740914
 H         3.440368         0.424007         1.906219
 H         1.870397         2.485742         0.808162
 H         3.332936         3.052031         0.030821
