19
Iteration:  3096
 C         0.858845         2.912151        -1.779863
 C         1.926477         2.026406        -1.241572
 C         2.986706         1.502051        -2.267037
 C         3.207552         0.249200        -1.417487
 O         3.806372        -1.064184        -1.529170
 C         1.763663         0.481747        -0.834276
 C         3.026680         0.673669        -0.021893
 O         3.563637        -0.105414         0.996525
 C         2.788699         2.184903         0.034056
 H         0.072302         3.012690        -1.049069
 H         1.192364         3.930558        -1.989746
 H         0.439605         2.362485        -2.654278
 H         2.590493         1.189434        -3.226367
 H         3.840272         2.074417        -2.713929
 H         4.085605        -1.335810        -0.654723
 H         0.893484        -0.102953        -0.753689
 H         2.794251        -0.025325         1.638704
 H         2.035282         2.384684         0.738843
 H         3.681222         2.785872         0.136631
