19
Iteration:  3456charge 0 multiplicity 1
 C         0.890059         2.989334        -1.723696
 C         1.937400         1.964483        -1.282257
 C         2.974160         1.352704        -2.367101
 C         3.146426         0.174549        -1.411712
 O         3.990364        -0.965868        -1.640993
 C         1.784328         0.382863        -0.825586
 C         3.039455         0.706948         0.024779
 O         3.344721        -0.032862         1.127109
 C         2.782490         2.199692         0.057273
 H         0.125116         3.134714        -0.896652
 H         1.241436         4.012808        -2.064967
 H         0.259578         2.710562        -2.630072
 H         2.279752         1.002662        -3.177329
 H         3.901943         2.003301        -2.643575
 H         3.875150        -1.518731        -0.876758
 H         0.761264         0.083277        -0.786895
 H         4.286764         0.060829         1.249963
 H         1.986094         2.163875         0.933722
 H         3.513401         3.003400         0.069865
