19
Iteration:  2734charge 0 multiplicity 1
 C         0.917019         2.957718        -1.877144
 C         1.911498         2.025720        -1.226217
 C         2.967267         1.464064        -2.336274
 C         3.080408         0.160398        -1.412928
 O         3.840939        -1.000222        -1.695127
 C         1.766360         0.426756        -0.790878
 C         2.985791         0.669673         0.098238
 O         3.662138        -0.053921         1.082554
 C         2.762607         2.172664         0.121813
 H         0.186300         3.366623        -1.231029
 H         1.525093         3.748016        -2.401275
 H         0.356440         2.505768        -2.699352
 H         2.412320         1.096805        -3.268220
 H         3.876927         2.064095        -2.302786
 H         3.443672        -1.734980        -1.165057
 H         0.882590        -0.219595        -0.384270
 H         3.205389         0.153470         1.926230
 H         2.068243         2.387310         1.003619
 H         3.553650         2.900664         0.015859
