19
Iteration:  1686charge 0 multiplicity 1
 C         0.874284         2.895886        -1.696468
 C         2.024923         1.895651        -1.324851
 C         2.941159         1.379960        -2.404938
 C         3.179244         0.253339        -1.387734
 O         3.889195        -0.906217        -1.732966
 C         1.747634         0.467558        -0.777351
 C         2.879755         0.690076         0.090283
 O         3.435523         0.002493         1.181573
 C         2.906773         2.161178         0.031667
 H         0.362643         3.042453        -0.709730
 H         1.228587         3.821684        -2.205039
 H         0.076414         2.419383        -2.409814
 H         2.194150         1.114504        -3.131157
 H         3.857074         1.920813        -2.744321
 H         4.531830        -1.134041        -1.061797
 H         0.890295        -0.271550        -1.026269
 H         3.028180        -0.787217         1.549004
 H         2.307574         2.608991         0.924010
 H         3.924848         2.734438        -0.114150
