19
Iteration:   967
 C         0.808958         2.816586        -1.819048
 C         1.912690         1.946570        -1.264628
 C         3.165412         1.450286        -2.265847
 C         3.152623         0.220062        -1.387532
 O         3.708493        -1.022610        -1.564913
 C         1.775852         0.438585        -0.832063
 C         2.916089         0.748072         0.072655
 O         3.619909         0.030569         1.016395
 C         2.774354         2.210920         0.085040
 H         0.027883         2.702382        -1.048127
 H         1.198155         3.819237        -2.000991
 H         0.409265         2.355223        -2.793017
 H         2.813271         1.103125        -3.219501
 H         4.108380         2.000676        -2.502360
 H         4.689233        -0.770720        -1.523779
 H         0.788167        -0.222019        -0.929791
 H         3.007253        -0.672401         1.365927
 H         2.099857         2.644829         0.859733
 H         3.771128         2.869154         0.126259
