19
Iteration:  4943
 C         0.953641         2.883426        -1.769793
 C         2.010880         1.966714        -1.277209
 C         3.011215         1.351714        -2.330688
 C         3.172179         0.261301        -1.336359
 O         3.977367        -0.886484        -1.556010
 C         1.581136         0.372848        -0.722619
 C         2.798378         0.649431         0.063415
 O         3.604209        -0.107693         0.901336
 C         2.698207         2.262152         0.008414
 H         0.123186         3.211079        -1.096656
 H         1.501915         3.764530        -2.201293
 H         0.298649         2.621965        -2.606580
 H         2.371509         1.074983        -3.256677
 H         4.003117         1.908011        -2.495834
 H         4.488667        -0.990922        -0.721382
 H         0.649153        -0.071013        -0.638739
 H         3.257745        -0.138392         1.785514
 H         1.953829         2.672353         0.733168
 H         3.586684         2.805743        -0.037218
