19
Iteration:  2618charge 0 multiplicity 1
 C         0.850069         2.924357        -1.724915
 C         1.956832         1.975407        -1.294890
 C         3.070979         1.401922        -2.343604
 C         3.192974         0.233357        -1.320379
 O         3.688527        -1.038814        -1.736619
 C         1.777364         0.405193        -0.776845
 C         3.006718         0.750380         0.104433
 O         3.576962        -0.083694         1.088398
 C         2.766148         2.291193        -0.004860
 H        -0.004381         2.925511        -0.968309
 H         1.386295         3.857218        -1.854872
 H         0.442940         2.702399        -2.792150
 H         2.600088         0.981214        -3.198108
 H         4.039729         1.878953        -2.537342
 H         4.430307        -1.289496        -1.144781
 H         0.797326        -0.204001        -0.718462
 H         3.009254        -0.066497         1.909045
 H         2.108210         2.414244         0.836442
 H         3.729844         2.904782        -0.214641
