19
Iteration:   311
 C         0.884393         2.894483        -1.785758
 C         1.868649         1.893231        -1.312892
 C         3.026724         1.464319        -2.217414
 C         3.126857         0.208460        -1.388569
 O         3.869612        -0.977470        -1.671245
 C         1.781761         0.426112        -0.713890
 C         3.023013         0.760541         0.009461
 O         3.529623        -0.116416         0.986581
 C         2.732541         2.224147         0.006015
 H         0.098849         3.058380        -0.946929
 H         1.305610         3.924182        -2.029176
 H         0.271539         2.613863        -2.670248
 H         2.751559         1.253035        -3.330180
 H         3.883318         2.246886        -2.210363
 H         4.105376        -1.313468        -0.727250
 H         1.134543        -0.248221        -0.412209
 H         3.196057         0.125991         1.851247
 H         2.164673         2.464292         0.907633
 H         3.616012         2.842008        -0.036890
