19
Iteration:  3809charge 0 multiplicity 1
 C         0.755066         2.837671        -1.754155
 C         2.086622         1.978811        -1.327615
 C         3.060840         1.441887        -2.376724
 C         3.213498         0.230976        -1.400360
 O         3.822772        -0.988514        -1.707665
 C         1.824418         0.514111        -0.748935
 C         3.005475         0.692347         0.098260
 O         3.329917        -0.048875         1.148342
 C         2.808899         2.174181         0.040252
 H         0.181542         3.157570        -0.898312
 H         1.045036         3.674540        -2.298886
 H         0.201308         2.259268        -2.473854
 H         2.606203         1.285391        -3.317461
 H         4.079390         1.870919        -2.544124
 H         3.783162        -1.386314        -0.783626
 H         1.040428        -0.280774        -0.607350
 H         4.320664         0.011133         1.381224
 H         1.953537         2.519594         0.706813
 H         3.525278         2.974407         0.030823
