19
Iteration:  1119
 C         0.878367         2.833288        -1.852725
 C         1.928727         1.975174        -1.240453
 C         3.043440         1.399738        -2.255598
 C         3.152294         0.302947        -1.397259
 O         3.746974        -1.053930        -1.624251
 C         1.817260         0.412580        -0.804988
 C         3.016632         0.722007         0.020790
 O         3.631083        -0.008623         1.052375
 C         2.681165         2.257314         0.090396
 H         0.062072         2.945830        -1.149699
 H         1.111708         3.890310        -1.974716
 H         0.436867         2.468758        -2.815284
 H         2.581040         1.129269        -3.188156
 H         3.973984         2.118526        -2.372457
 H         4.545739        -1.005488        -1.006994
 H         0.972691        -0.184650        -0.703894
 H         3.007565        -0.621335         1.525109
 H         1.890795         2.381281         0.744937
 H         3.400088         2.968699        -0.015146
