19
Iteration:  3777charge 0 multiplicity 1
 C         0.887187         2.863620        -1.672577
 C         1.953522         1.882529        -1.310886
 C         3.023186         1.369484        -2.276474
 C         3.164668         0.235477        -1.329563
 O         3.950784        -0.904358        -1.645055
 C         1.685474         0.503987        -0.801252
 C         2.953281         0.709201         0.072119
 O         3.361995        -0.101589         1.068966
 C         2.837476         2.210026        -0.095458
 H         0.221401         3.151299        -0.897921
 H         1.415629         3.685127        -2.038456
 H         0.210789         2.591216        -2.455105
 H         2.586771         1.136725        -3.228728
 H         3.973789         1.952127        -2.342141
 H         3.981839        -1.456792        -0.839800
 H         0.792399        -0.158611        -0.902291
 H         4.201286         0.245941         1.383130
 H         2.207506         2.802302         0.603153
 H         3.583309         2.777193        -0.478063
