19
Iteration:  2330charge 0 multiplicity 1
 C         0.875295         2.905693        -1.700622
 C         1.993507         1.845738        -1.349900
 C         3.081590         1.375915        -2.322229
 C         3.144577         0.225198        -1.324458
 O         3.821554        -0.921867        -1.793819
 C         1.782079         0.454233        -0.690704
 C         2.918254         0.776361         0.135527
 O         3.458646        -0.084203         1.084286
 C         2.828427         2.244431        -0.077317
 H         0.093447         2.956800        -0.968136
 H         1.355518         3.851505        -1.652308
 H         0.216058         2.669671        -2.522998
 H         2.634619         0.923535        -3.195845
 H         3.945036         2.071848        -2.348929
 H         4.196792        -1.317012        -1.016895
 H         1.046297        -0.291909        -0.621440
 H         2.839982        -0.295320         1.761320
 H         2.212109         2.712259         0.662952
 H         3.734744         2.812630        -0.181312
