19
Iteration:  1263charge 0 multiplicity 1
 C         0.903682         2.843311        -1.880617
 C         1.974640         1.937463        -1.282084
 C         3.090897         1.445052        -2.299428
 C         2.988787         0.189222        -1.375947
 O         3.767431        -1.021571        -1.550094
 C         1.721927         0.420486        -0.802771
 C         2.993238         0.752680         0.069535
 O         3.663205         0.043560         1.063867
 C         2.681632         2.206641         0.123341
 H         0.144972         2.928543        -1.072836
 H         1.366189         3.820098        -2.032231
 H         0.384514         2.481756        -2.836754
 H         2.587273         1.340677        -3.244114
 H         4.112487         1.944063        -2.286732
 H         4.610497        -0.604393        -1.870743
 H         0.809267        -0.267243        -0.534658
 H         3.677454        -0.849145         0.655904
 H         1.842166         2.304971         0.838835
 H         3.556411         2.939137         0.164422
