19
Iteration:  1884charge 0 multiplicity 1
 C         0.812464         2.944029        -1.642850
 C         1.937271         1.924126        -1.392323
 C         3.104171         1.403537        -2.269379
 C         3.139207         0.231844        -1.310968
 O         3.820295        -0.947550        -1.684074
 C         1.772807         0.397509        -0.833127
 C         2.958379         0.712255         0.054457
 O         3.547274        -0.126654         1.060600
 C         2.751869         2.255630        -0.054295
 H         0.414574         3.451430        -0.727850
 H         1.288509         3.810339        -2.085333
 H        -0.000967         2.467767        -2.213906
 H         2.973550         1.049309        -3.285756
 H         4.011674         2.109800        -2.427957
 H         4.264947        -1.271726        -0.864809
 H         1.052139        -0.306855        -0.882769
 H         2.966491        -0.143660         1.876515
 H         2.080728         2.608122         0.732605
 H         3.594458         2.908162        -0.154947
