19
Iteration:  4858charge 0 multiplicity 1
 C         0.749342         2.767600        -1.699677
 C         2.073202         1.931286        -1.370585
 C         3.205071         1.461845        -2.302896
 C         3.166131         0.201146        -1.319457
 O         3.748577        -1.012449        -1.731525
 C         1.764065         0.519278        -0.856005
 C         3.018464         0.702869         0.121051
 O         3.429752        -0.025975         1.197775
 C         2.728898         2.178413        -0.052476
 H         0.093273         2.683481        -0.821983
 H         0.918953         3.793399        -1.893241
 H         0.393329         2.292129        -2.629093
 H         3.000328         1.331265        -3.344610
 H         4.109652         2.048888        -2.290670
 H         4.592140        -0.696222        -2.181634
 H         0.993359        -0.112096        -0.575960
 H         3.243432         0.445810         2.073886
 H         2.037154         2.615553         0.690584
 H         3.539523         2.981507        -0.109660
