19
Iteration:  1227charge 0 multiplicity 1
 C         0.849359         2.876697        -1.762737
 C         1.896127         1.909946        -1.356897
 C         3.032554         1.422712        -2.284448
 C         3.181790         0.225429        -1.357877
 O         3.821214        -0.985563        -1.535083
 C         1.716106         0.420132        -0.824444
 C         2.924733         0.729324         0.087145
 O         3.515798        -0.036282         1.088998
 C         2.791164         2.208023        -0.027758
 H         0.262627         3.203635        -0.914659
 H         1.392014         3.789436        -2.152991
 H         0.154799         2.495388        -2.562842
 H         2.565661         1.172634        -3.226720
 H         3.737388         2.164771        -2.562041
 H         4.756568        -0.617655        -1.574785
 H         0.949316        -0.267914        -0.632126
 H         4.208979        -0.645745         0.772041
 H         2.299438         2.735749         0.850647
 H         3.809309         2.734837         0.089302
