19
Iteration:  2921charge 0 multiplicity 1
 C         0.865277         2.946718        -1.793089
 C         1.980636         2.000519        -1.329257
 C         3.128641         1.367112        -2.349169
 C         3.144656         0.282072        -1.341628
 O         3.625054        -0.956677        -1.550101
 C         1.793197         0.386374        -0.752006
 C         2.971584         0.691549         0.097591
 O         3.607036        -0.120327         1.068456
 C         2.712706         2.269726         0.035847
 H         0.130271         3.174306        -0.986232
 H         1.430941         3.887247        -2.116385
 H         0.349747         2.592192        -2.767307
 H         2.597501         0.798205        -3.152608
 H         4.012271         1.863733        -2.368581
 H         4.425905        -0.801145        -2.104105
 H         0.900787        -0.224784        -0.790050
 H         3.916317        -0.933966         0.663494
 H         2.014170         2.376637         0.912196
 H         3.582492         3.099316         0.224194
