19
Iteration:  4659charge 0 multiplicity 1
 C         0.953048         2.903163        -1.779211
 C         1.964907         1.931155        -1.320236
 C         3.067370         1.426722        -2.263767
 C         3.226709         0.271808        -1.369750
 O         3.770425        -0.967929        -1.602949
 C         1.782602         0.389993        -0.875770
 C         2.868326         0.666977         0.136652
 O         3.568034        -0.002921         1.025133
 C         2.620342         2.209649         0.067965
 H        -0.016410         2.868877        -1.264075
 H         1.432973         3.867674        -1.931021
 H         0.726837         2.466451        -2.733326
 H         2.490915         1.081406        -3.082121
 H         3.997393         1.986853        -2.428581
 H         4.724511        -0.865964        -1.557038
 H         1.000444        -0.291795        -0.887323
 H         3.089309        -0.492895         1.693421
 H         1.929813         2.533245         0.920281
 H         3.647359         2.715990        -0.017858
