19
Iteration:    53
 C         0.782687         2.876476        -1.651322
 C         1.949930         1.912605        -1.327976
 C         3.210563         1.370921        -2.339777
 C         3.179686         0.301971        -1.348581
 O         3.731560        -0.939948        -1.745243
 C         1.757598         0.400623        -0.807274
 C         3.023234         0.666184         0.113932
 O         3.463997         0.031461         1.227830
 C         2.772145         2.247626        -0.104598
 H         0.162150         2.980257        -0.667570
 H         1.180153         3.909820        -1.854444
 H         0.142467         2.377326        -2.447001
 H         2.701427         0.856246        -3.150137
 H         4.148995         1.989185        -2.616345
 H         4.642167        -1.049020        -1.325461
 H         1.034230        -0.319566        -0.909176
 H         3.244080        -0.859436         1.074872
 H         2.102871         2.538513         0.825484
 H         3.638627         2.731407        -0.444096
