19
Iteration:  3488charge 0 multiplicity 1
 C         0.868530         2.860286        -1.690684
 C         1.914629         1.873082        -1.323261
 C         3.120272         1.464390        -2.377516
 C         3.157142         0.233239        -1.343689
 O         3.825620        -0.920414        -1.705738
 C         1.825694         0.408532        -0.791101
 C         2.920389         0.738562         0.172989
 O         3.352941        -0.139467         1.126689
 C         2.810095         2.242056        -0.068285
 H         0.346208         3.205798        -0.807994
 H         1.259941         3.718618        -2.291069
 H         0.293437         2.251555        -2.423343
 H         2.702774         1.199461        -3.385293
 H         4.089530         2.096001        -2.495972
 H         4.280235        -1.214528        -0.856564
 H         0.799559         0.061057        -0.717514
 H         4.282766         0.133481         1.415350
 H         2.278278         2.682201         0.891557
 H         3.638381         2.902980        -0.389565
