19
Iteration:   745
 C         0.817493         2.889769        -1.852184
 C         1.908319         1.935487        -1.179137
 C         3.003586         1.465868        -2.295142
 C         3.143967         0.228594        -1.411469
 O         3.841375        -0.983105        -1.723876
 C         1.802116         0.350077        -0.861532
 C         3.035969         0.684133         0.072879
 O         3.516372        -0.038374         1.153070
 C         2.819252         2.240212         0.070274
 H        -0.075085         3.160110        -1.214733
 H         1.454564         3.851861        -2.021814
 H         0.566210         2.279116        -2.713757
 H         2.557934         1.173602        -3.250063
 H         3.767723         2.253498        -2.509485
 H         4.037272        -1.284651        -0.835616
 H         0.982742        -0.409862        -0.697084
 H         2.948467         0.238625         1.901262
 H         2.252894         2.663424         0.871177
 H         3.659448         2.811247        -0.306855
