19
Iteration:   368charge 0 multiplicity 1
 C         0.828653         2.891817        -1.669544
 C         1.894733         1.873590        -1.268196
 C         3.105212         1.467561        -2.303388
 C         3.172782         0.218631        -1.410787
 O         3.823425        -0.962345        -1.694594
 C         1.778983         0.404388        -0.809027
 C         2.992809         0.733700         0.006573
 O         3.476332        -0.038525         1.175896
 C         2.797745         2.239413        -0.069943
 H         0.077123         3.112521        -0.840958
 H         1.264353         3.860867        -2.006542
 H         0.187209         2.531167        -2.533148
 H         2.603702         1.118852        -3.261670
 H         4.058571         2.122956        -2.547296
 H         4.520764        -1.015254        -1.016849
 H         0.925568        -0.318677        -0.577267
 H         2.897548        -0.815476         1.413752
 H         2.287557         2.609109         0.820398
 H         3.771102         2.787160        -0.244226
