19
Iteration:   842charge 0 multiplicity 1
 C         0.778843         2.807523        -1.745210
 C         1.923784         1.917292        -1.283555
 C         3.061701         1.513629        -2.283448
 C         3.157281         0.129285        -1.500474
 O         3.827859        -1.053585        -1.663959
 C         1.825567         0.430048        -0.815384
 C         3.083839         0.794688         0.040827
 O         3.456990        -0.041411         1.130259
 C         2.821830         2.305797         0.058156
 H        -0.005705         2.997022        -0.998567
 H         1.315206         3.769325        -2.013802
 H         0.461364         2.296931        -2.640094
 H         2.505464         1.237398        -3.245966
 H         3.863346         2.275852        -2.470119
 H         4.169788        -1.160775        -0.717482
 H         0.938415        -0.202655        -0.851836
 H         2.636275        -0.199297         1.631335
 H         2.180291         2.662304         0.930722
 H         3.789428         2.987077        -0.122963
