19
Iteration:  4888
 C         0.808247         2.755925        -1.743177
 C         2.069815         1.944958        -1.304001
 C         3.012094         1.470387        -2.325923
 C         3.261221         0.253268        -1.370781
 O         3.764870        -1.014241        -1.711386
 C         1.854842         0.437256        -0.901825
 C         2.944244         0.733808         0.136625
 O         3.449403         0.025658         1.119671
 C         2.787563         2.220508         0.070420
 H         0.099612         2.984984        -0.873153
 H         1.148254         3.785284        -2.106861
 H         0.342238         2.264884        -2.608209
 H         2.353716         1.232955        -3.255837
 H         3.936256         2.118260        -2.559357
 H         4.438656        -1.211771        -1.021072
 H         1.202733        -0.408736        -0.805000
 H         2.686443        -0.195774         1.687641
 H         2.071423         2.604684         0.831153
 H         3.679797         2.778222         0.055297
