19
Iteration:  4281charge 0 multiplicity 1
 C         0.912650         2.830491        -1.736895
 C         2.015614         1.915613        -1.379785
 C         3.036567         1.539820        -2.295303
 C         3.191003         0.272227        -1.367615
 O         3.923700        -0.962955        -1.553302
 C         1.791143         0.432307        -0.914369
 C         2.939204         0.717065         0.108304
 O         3.446478        -0.017264         1.119269
 C         2.722070         2.173647         0.056854
 H         0.278347         3.152673        -0.899791
 H         1.280279         3.787473        -2.108146
 H         0.309535         2.227580        -2.476407
 H         2.591617         0.949768        -3.048433
 H         3.892064         2.193798        -2.547876
 H         3.284589        -1.652597        -1.932125
 H         1.067922        -0.354900        -0.868034
 H         2.895329        -0.821753         1.280458
 H         1.932897         2.610539         0.730348
 H         3.498198         2.952388        -0.214112
