19
Iteration:  1331charge 0 multiplicity 1
 C         0.806903         2.743408        -1.581081
 C         2.068386         1.966362        -1.359340
 C         3.069493         1.359701        -2.299872
 C         3.087338         0.147312        -1.442012
 O         3.836021        -1.007870        -1.738176
 C         1.742852         0.504184        -0.860712
 C         2.997511         0.739554         0.128982
 O         3.387917         0.156276         1.220557
 C         2.861837         2.193012        -0.026629
 H         0.120500         2.817712        -0.665606
 H         1.102634         3.748814        -1.944772
 H         0.302581         2.252778        -2.405657
 H         2.534597         1.067088        -3.228971
 H         4.047373         1.913625        -2.568652
 H         4.786410        -0.769218        -1.821287
 H         0.818004         0.085308        -0.816941
 H         3.601194        -0.796845         0.988086
 H         2.051539         2.442874         0.666403
 H         3.676646         2.953676        -0.010290
