19
Iteration:  1805
 C         0.857372         2.952401        -1.741980
 C         1.919315         1.872232        -1.356637
 C         3.090723         1.434559        -2.234587
 C         3.137990         0.222344        -1.346986
 O         3.789003        -0.970686        -1.684935
 C         1.763808         0.416886        -0.716862
 C         2.998176         0.760782         0.068837
 O         3.565812        -0.135469         1.013090
 C         2.766899         2.282533        -0.048160
 H         0.130435         2.754042        -0.979969
 H         1.277116         3.929694        -1.869402
 H         0.585167         2.580133        -2.740435
 H         2.713641         1.293120        -3.234989
 H         3.993826         2.087580        -2.045830
 H         4.092338        -1.437457        -0.848021
 H         0.853810        -0.259937        -0.733461
 H         2.873193        -0.279843         1.713814
 H         2.086425         2.651628         0.685886
 H         3.550114         3.003313        -0.073279
