19
Iteration:  1576charge 0 multiplicity 1
 C         0.892386         2.903493        -1.853058
 C         1.865934         1.915519        -1.260423
 C         3.041653         1.464372        -2.227230
 C         3.152110         0.207129        -1.417743
 O         3.754022        -1.040946        -1.696878
 C         1.768525         0.415202        -0.764665
 C         3.086206         0.764707         0.056472
 O         3.554837        -0.144701         1.074467
 C         2.680819         2.258602         0.031508
 H         0.095455         3.177162        -1.148617
 H         1.312713         3.909488        -2.046081
 H         0.525225         2.519609        -2.858089
 H         2.800445         1.473612        -3.225782
 H         3.788939         2.215178        -2.097622
 H         4.142711        -1.379704        -0.881863
 H         0.985286        -0.184374        -0.502250
 H         4.194782         0.494620         1.457956
 H         2.124584         2.480909         0.976828
 H         3.471279         3.029089         0.115392
