19
Iteration:  4861
 C         0.754279         2.764936        -1.684117
 C         2.075013         1.909948        -1.368354
 C         3.225419         1.451169        -2.339494
 C         3.163314         0.219568        -1.341442
 O         3.740863        -1.002506        -1.732772
 C         1.771369         0.529239        -0.859761
 C         3.016996         0.699879         0.150870
 O         3.435898        -0.035661         1.200033
 C         2.721000         2.189272        -0.025107
 H         0.091749         2.722781        -0.856242
 H         0.841809         3.815704        -1.938341
 H         0.461429         2.245947        -2.598491
 H         2.942579         1.171240        -3.337234
 H         4.095703         2.066590        -2.350026
 H         4.606250        -0.678653        -2.079068
 H         0.910241        -0.094139        -0.648247
 H         3.137426         0.501791         1.973008
 H         2.064863         2.565920         0.766418
 H         3.529239         3.043688        -0.180809
