19
Iteration:  3465charge 0 multiplicity 1
 C         0.834000         3.010977        -1.733391
 C         1.953102         1.881364        -1.311850
 C         2.976845         1.398238        -2.289342
 C         3.229771         0.148185        -1.417975
 O         3.934903        -0.948158        -1.641860
 C         1.787743         0.379269        -0.810901
 C         3.006852         0.701534         0.002534
 O         3.320275        -0.031001         1.118825
 C         2.831006         2.229870         0.012942
 H         0.333639         3.162181        -0.831484
 H         1.306214         3.983204        -2.088612
 H         0.291592         2.481027        -2.504646
 H         2.245585         1.316601        -3.167735
 H         3.880237         1.962515        -2.731975
 H         4.006023        -1.354494        -0.786721
 H         0.794167        -0.195634        -0.776316
 H         4.230111        -0.141669         1.341933
 H         2.072760         2.307736         0.935296
 H         3.564014         3.076415         0.167368
