19
Iteration:  1514
 C         0.776995         2.910941        -1.654401
 C         1.869647         1.897251        -1.294613
 C         3.050589         1.389407        -2.256077
 C         3.237734         0.240777        -1.319380
 O         3.947651        -0.912192        -1.651695
 C         1.791836         0.397098        -0.819870
 C         2.936606         0.703627         0.053867
 O         3.323603        -0.088033         1.143669
 C         2.898487         2.298761        -0.159672
 H         0.278596         3.182316        -0.684066
 H         1.221801         3.834986        -2.044623
 H         0.072436         2.405672        -2.359126
 H         2.545346         1.210394        -3.347249
 H         3.921099         2.104586        -2.571054
 H         3.390784        -1.669426        -1.528182
 H         0.947166        -0.239393        -0.750464
 H         4.257641        -0.274841         1.251923
 H         2.667560         2.735711         0.814066
 H         3.850999         2.588579        -0.628188
