19
Iteration:  2218charge 0 multiplicity 1
 C         0.882148         2.779804        -1.767575
 C         2.019794         2.031532        -1.227874
 C         3.011115         1.500261        -2.297176
 C         3.145144         0.205855        -1.476345
 O         3.781046        -0.964761        -1.627211
 C         1.765717         0.416558        -0.859524
 C         2.972409         0.711242         0.040939
 O         3.545899        -0.048650         1.072058
 C         2.818943         2.204453         0.067492
 H         0.169468         3.196884        -1.011851
 H         1.408902         3.675297        -2.273954
 H         0.221903         2.154340        -2.398493
 H         2.437354         1.406815        -3.292439
 H         3.992495         2.038714        -2.452675
 H         4.055989        -1.506540        -0.829413
 H         0.719189         0.068999        -0.499446
 H         2.701712        -0.281185         1.550857
 H         2.204004         2.414696         0.956635
 H         3.722383         2.778740        -0.015004
