19
Iteration:  4350
 C         0.942569         2.784976        -1.827802
 C         1.939984         1.930424        -1.287192
 C         3.182589         1.424501        -2.329052
 C         3.090124         0.234439        -1.368997
 O         3.884034        -0.887756        -1.652833
 C         1.784608         0.433046        -0.801484
 C         2.959810         0.731613         0.117690
 O         3.435042        -0.071169         1.146738
 C         2.674713         2.179085         0.053097
 H         0.043515         2.922590        -1.217361
 H         1.210164         3.884709        -1.839247
 H         0.687141         2.389170        -2.821486
 H         2.666545         1.060195        -3.145240
 H         3.868136         2.258077        -2.511054
 H         3.680865        -1.251327        -2.538049
 H         0.945329        -0.290588        -0.729070
 H         3.642488         0.431356         1.936257
 H         1.910006         2.518731         0.797711
 H         3.591177         2.727388         0.113604
