19
Iteration:   162
 C         0.799334         2.868841        -1.704654
 C         1.961142         1.955622        -1.329217
 C         3.086216         1.452569        -2.339394
 C         3.140676         0.204158        -1.439139
 O         3.864135        -0.929940        -1.599018
 C         1.683597         0.424243        -0.831640
 C         2.940821         0.662932        -0.012670
 O         3.571049        -0.041077         1.061586
 C         2.777346         2.145942         0.045483
 H         0.238653         3.132535        -0.791279
 H         1.192090         3.834164        -1.993640
 H         0.121603         2.515117        -2.497619
 H         2.692010         1.239216        -3.308221
 H         3.993357         2.062463        -2.368712
 H         4.197011        -1.211961        -0.744387
 H         0.886091        -0.166928        -0.496242
 H         3.369640         0.533645         1.841497
 H         2.123067         2.273972         0.951825
 H         3.796452         2.675043        -0.053918
