19
Iteration:  1984charge 0 multiplicity 1
 C         0.885448         2.926416        -1.674614
 C         1.951205         1.953219        -1.336717
 C         3.027064         1.426081        -2.383968
 C         3.168712         0.267838        -1.439988
 O         3.825065        -0.939366        -1.638689
 C         1.749361         0.389515        -0.829522
 C         2.954725         0.680199         0.045049
 O         3.540058        -0.052217         1.128807
 C         2.810422         2.132211         0.044810
 H         0.006161         2.929938        -0.992593
 H         1.246179         3.973601        -1.790982
 H         0.415950         2.558417        -2.620948
 H         2.412895         1.095219        -3.240742
 H         3.835778         2.135425        -2.810076
 H         4.278569        -0.985090        -0.735487
 H         0.748802        -0.260440        -0.888212
 H         3.063579         0.072568         1.941119
 H         2.084796         2.368868         0.812891
 H         3.748916         2.596269        -0.005290
