19
Iteration:  2717charge 0 multiplicity 1
 C         0.916836         2.962905        -1.833798
 C         1.972501         1.890611        -1.280364
 C         2.994309         1.377290        -2.236426
 C         3.196343         0.254092        -1.337348
 O         3.743602        -0.924607        -1.758697
 C         1.726579         0.352289        -0.727711
 C         3.003267         0.734095         0.058023
 O         3.597210        -0.028216         1.084599
 C         2.777182         2.230454         0.059183
 H         0.272481         3.382998        -0.996944
 H         1.414216         3.781552        -2.328314
 H         0.325473         2.397411        -2.612868
 H         2.420028         1.072842        -3.086842
 H         3.874239         1.938201        -2.691030
 H         3.618843        -1.628305        -1.061280
 H         0.981941        -0.340008        -0.937424
 H         2.959114        -0.105875         1.801123
 H         2.041148         2.367337         0.856591
 H         3.842455         2.690479         0.038412
