19
Iteration:   528
 C         0.803996         2.885614        -1.654662
 C         1.952211         1.914975        -1.271543
 C         2.978501         1.467636        -2.265347
 C         3.153703         0.222350        -1.430558
 O         3.951035        -0.966637        -1.557139
 C         1.688130         0.449972        -0.841482
 C         2.994482         0.707276        -0.007014
 O         3.478249        -0.088328         1.021914
 C         2.864391         2.213361        -0.083731
 H         0.149801         3.056093        -0.814918
 H         1.234755         3.751040        -2.107138
 H         0.255902         2.418123        -2.431038
 H         2.533595         1.038223        -3.202007
 H         3.980192         2.118995        -2.394909
 H         4.507159        -1.030148        -0.715869
 H         0.756405        -0.095962        -0.660659
 H         2.694059        -0.286775         1.570292
 H         2.284908         2.624743         0.828620
 H         3.755340         2.875240        -0.246054
