19
Iteration:  3527
 C         0.788468         2.808418        -1.803315
 C         2.041614         1.950604        -1.187167
 C         3.132344         1.448937        -2.304041
 C         3.187891         0.218125        -1.475615
 O         3.760214        -1.011316        -1.671250
 C         1.759898         0.489413        -0.803626
 C         3.006017         0.736028         0.020006
 O         3.442962        -0.053695         1.088518
 C         2.801848         2.193280         0.101528
 H        -0.114210         3.000564        -1.181175
 H         1.079725         3.769807        -2.282820
 H         0.331734         2.359721        -2.713644
 H         2.521566         1.300267        -3.186034
 H         3.992650         2.060755        -2.395484
 H         4.131676        -1.457390        -0.929785
 H         0.665799         0.203852        -0.663978
 H         3.933693         0.422716         1.735277
 H         2.114173         2.331230         0.905645
 H         3.716157         2.832710         0.075707
