19
Iteration:  1355charge 0 multiplicity 1
 C         0.749921         2.868621        -1.636909
 C         1.913050         1.921561        -1.256635
 C         3.067064         1.422198        -2.373784
 C         3.215947         0.213766        -1.425164
 O         3.868000        -1.049121        -1.640024
 C         1.766368         0.358073        -0.800942
 C         2.964265         0.720882         0.082376
 O         3.356259         0.067397         1.151749
 C         2.914091         2.280225        -0.085879
 H         0.151512         3.094958        -0.722029
 H         1.213095         3.838421        -2.003263
 H         0.068258         2.477545        -2.360407
 H         2.660734         1.316719        -3.453127
 H         4.037691         2.068473        -2.338553
 H         4.790551        -0.960011        -1.819044
 H         0.977497        -0.232086        -0.358352
 H         3.437925        -0.861035         0.957282
 H         2.396246         2.666038         0.803771
 H         3.822580         2.801916        -0.309185
