19
Iteration:  3114charge 0 multiplicity 1
 C         0.818766         2.935203        -1.726418
 C         1.947475         1.874901        -1.309994
 C         3.063103         1.443304        -2.354187
 C         3.102180         0.183215        -1.448807
 O         3.876158        -0.966314        -1.552829
 C         1.734021         0.376370        -0.868392
 C         2.958423         0.750112         0.083600
 O         3.478494        -0.118479         0.993212
 C         2.861377         2.281997         0.062395
 H         0.128248         3.129834        -0.917419
 H         1.312974         3.952540        -1.905768
 H         0.371151         2.690016        -2.713510
 H         2.582187         1.493249        -3.358528
 H         4.032459         2.050610        -2.314372
 H         4.003776        -1.351307        -0.687276
 H         0.843843        -0.289155        -0.572080
 H         3.373856        -0.042769         1.976667
 H         2.384001         2.584629         1.102079
 H         3.709300         2.917046        -0.307318
