19
Iteration:  3377charge 0 multiplicity 1
 C         0.879596         2.739678        -1.748525
 C         2.037764         2.002204        -1.306113
 C         3.090189         1.444348        -2.300477
 C         3.136325         0.241310        -1.452603
 O         3.777894        -1.001741        -1.708428
 C         1.831859         0.526965        -0.821138
 C         3.045508         0.735255         0.053413
 O         3.418840        -0.070365         1.145500
 C         2.689865         2.242063         0.146284
 H        -0.034928         2.923377        -1.257961
 H         1.106706         3.749718        -2.254355
 H         0.512816         2.136286        -2.624575
 H         2.567792         1.382327        -3.320963
 H         4.077791         1.993164        -2.453639
 H         3.632475        -1.572383        -0.937947
 H         0.834193        -0.118298        -0.705307
 H         4.375444        -0.115017         1.210828
 H         1.891753         2.654232         0.841115
 H         3.594257         2.866541         0.277240
