19
Iteration:  1316charge 0 multiplicity 1
 C         0.827097         2.778905        -1.696306
 C         2.021808         1.920936        -1.341921
 C         3.099170         1.391937        -2.466341
 C         3.227107         0.268094        -1.376049
 O         3.687614        -0.959239        -1.731944
 C         1.804331         0.446593        -0.787374
 C         2.936482         0.698980         0.052751
 O         3.477719         0.079496         1.318602
 C         2.787657         2.202183         0.017677
 H         0.156921         2.696491        -0.832736
 H         1.061498         3.824913        -1.897782
 H         0.188972         2.379473        -2.553440
 H         2.598495         1.010137        -3.330607
 H         3.938265         1.985916        -2.595243
 H         4.688960        -0.869214        -1.677366
 H         0.809474        -0.160937        -0.708904
 H         3.821846        -0.821128         1.103451
 H         2.114732         2.664958         0.779948
 H         3.766393         2.807407         0.119374
