19
Iteration:   134charge 0 multiplicity 1
 C         0.852508         2.862378        -1.679047
 C         1.919672         1.920858        -1.297614
 C         3.084131         1.460479        -2.267446
 C         3.248944         0.238064        -1.319819
 O         3.772539        -1.013106        -1.616910
 C         1.762858         0.443305        -0.826878
 C         2.888337         0.752073         0.136563
 O         3.643136        -0.139384         0.956164
 C         2.631997         2.308749        -0.085240
 H         0.228717         3.228719        -0.863379
 H         1.449321         3.763940        -2.069978
 H         0.265180         2.536965        -2.547211
 H         2.728147         1.148777        -3.307345
 H         3.964259         2.146404        -2.228629
 H         4.581098        -1.234566        -1.091266
 H         0.897078        -0.421268        -0.826454
 H         3.324231        -0.058823         1.849288
 H         1.970418         2.634635         0.689872
 H         3.519350         2.786658        -0.346387
