19
Iteration:  2623charge 0 multiplicity 1
 C         0.834779         2.918420        -1.693652
 C         1.953297         1.957758        -1.324458
 C         3.107539         1.396408        -2.334953
 C         3.167248         0.252902        -1.353990
 O         3.686989        -1.048338        -1.715576
 C         1.767967         0.404818        -0.758639
 C         2.982002         0.744267         0.127926
 O         3.573896        -0.113426         1.099269
 C         2.801175         2.337574        -0.031180
 H         0.031877         2.908662        -0.988310
 H         1.296150         3.950214        -1.807596
 H         0.562580         2.627440        -2.654769
 H         2.580108         1.056946        -3.323448
 H         4.036610         1.933783        -2.804119
 H         4.523175        -1.204346        -1.253649
 H         1.021567        -0.313555        -0.761463
 H         2.950426        -0.020156         1.828053
 H         1.981539         2.595163         0.717797
 H         3.712999         2.831817        -0.048270
