19
Iteration:  3937charge 0 multiplicity 1
 C         0.776796         2.907394        -1.702725
 C         1.982777         2.004035        -1.295386
 C         3.089025         1.364114        -2.298502
 C         3.208401         0.202795        -1.367849
 O         3.936817        -1.011894        -1.655646
 C         1.689900         0.407058        -0.821894
 C         2.946211         0.724433         0.030843
 O         3.406025        -0.106252         1.096191
 C         2.801581         2.311437        -0.066096
 H         0.132814         3.049497        -0.765531
 H         1.300493         3.883649        -1.978216
 H         0.007839         2.587784        -2.458489
 H         2.587500         1.005230        -3.202078
 H         4.034337         1.914165        -2.414263
 H         3.980969        -1.470306        -0.772810
 H         0.705931        -0.122630        -0.723321
 H         4.075390         0.467570         1.538723
 H         2.229155         2.666558         0.747975
 H         3.763483         2.775033        -0.151058
