19
Iteration:  3450
 C         0.902860         2.956109        -1.718444
 C         1.977256         2.007494        -1.266552
 C         2.968735         1.334644        -2.388914
 C         3.117863         0.203230        -1.422910
 O         4.001922        -0.968124        -1.644549
 C         1.764364         0.433470        -0.826559
 C         3.023534         0.724345         0.009929
 O         3.374492        -0.054721         1.148052
 C         2.704467         2.165890         0.064094
 H         0.078478         3.178604        -1.017280
 H         1.378869         3.915385        -1.880028
 H         0.303272         2.696303        -2.584797
 H         2.568671         0.891360        -3.312260
 H         3.780308         1.953659        -2.673954
 H         3.838488        -1.652398        -0.932547
 H         0.809444        -0.090294        -0.624960
 H         4.331750         0.141839         1.243229
 H         2.066763         2.459511         0.864410
 H         3.553305         2.894774         0.070405
