19
Iteration:  3402charge 0 multiplicity 1
 C         0.840547         2.862341        -1.829948
 C         1.922620         1.934741        -1.268556
 C         3.143954         1.446891        -2.221213
 C         3.142362         0.244580        -1.372290
 O         3.827465        -0.994357        -1.711066
 C         1.703605         0.460780        -0.840713
 C         2.979238         0.711997         0.054033
 O         3.464870        -0.047645         1.169178
 C         2.813369         2.214621         0.029809
 H        -0.143378         2.908543        -1.307032
 H         1.098980         3.918772        -2.024701
 H         0.363331         2.456091        -2.729853
 H         2.699417         1.433380        -3.171637
 H         4.083804         2.029564        -2.286869
 H         3.795990        -1.560725        -0.953466
 H         0.967695        -0.309364        -0.579173
 H         4.358783        -0.235952         0.866939
 H         2.188145         2.530093         0.894674
 H         3.599063         2.917446        -0.033453
