19
Iteration:  2048
 C         0.841031         2.874215        -1.805604
 C         1.984883         1.922366        -1.299391
 C         3.029552         1.427294        -2.277475
 C         3.121590         0.284144        -1.378682
 O         3.828514        -0.875676        -1.702837
 C         1.711110         0.474647        -0.829445
 C         2.971173         0.708190         0.132957
 O         3.571909        -0.189060         1.115524
 C         2.835078         2.234932         0.000902
 H         0.283672         3.248186        -0.890738
 H         1.148111         3.761995        -2.396773
 H         0.157151         2.123147        -2.348909
 H         2.537004         0.990373        -3.128268
 H         3.938270         1.987215        -2.580248
 H         4.083113        -1.281824        -0.810903
 H         0.765310        -0.243998        -0.863972
 H         2.826891        -0.328412         1.695615
 H         2.322484         2.780187         0.860797
 H         3.845152         2.818001        -0.046485
