19
Iteration:  2543charge 0 multiplicity 1
 C         0.877526         2.954235        -1.757095
 C         1.965081         1.923838        -1.280521
 C         3.067871         1.371397        -2.329415
 C         3.178374         0.202891        -1.363677
 O         3.767110        -0.939817        -1.656947
 C         1.756751         0.510250        -0.748975
 C         3.009783         0.696824         0.079404
 O         3.578646        -0.167266         1.012898
 C         2.737312         2.257817        -0.010574
 H         0.237785         3.313138        -0.879971
 H         1.267301         3.744517        -2.402262
 H         0.075897         2.345754        -2.315773
 H         2.509025         0.959215        -3.180134
 H         3.945625         2.100689        -2.334724
 H         4.131012        -1.336040        -0.852993
 H         0.772131        -0.060428        -0.641646
 H         3.036319        -0.079720         1.797524
 H         2.095132         2.591199         0.871868
 H         3.533564         3.050447        -0.217929
