19
Iteration:  2838
 C         0.865538         2.887960        -1.603655
 C         1.991301         1.922715        -1.329782
 C         3.051725         1.319922        -2.348821
 C         3.191771         0.244679        -1.344575
 O         3.741751        -1.075441        -1.730074
 C         1.812698         0.486523        -0.820159
 C         3.005445         0.772374         0.092071
 O         3.437834        -0.024645         1.174238
 C         2.811447         2.317201        -0.047507
 H         0.164822         2.969256        -0.730386
 H         1.201698         3.876289        -1.823394
 H         0.344377         2.490111        -2.464117
 H         2.609380         1.219020        -3.289489
 H         3.864767         2.038334        -2.669892
 H         4.682368        -0.948356        -1.638580
 H         0.943339        -0.230701        -0.730670
 H         2.866836        -0.836861         1.034509
 H         2.171057         2.717537         0.784284
 H         3.757639         2.816486        -0.128951
