19
Iteration:  4185
 C         0.908546         2.856547        -1.823331
 C         1.968102         1.966594        -1.374186
 C         3.044615         1.478908        -2.271611
 C         3.166857         0.220862        -1.395307
 O         3.903290        -0.968410        -1.582955
 C         1.772714         0.513207        -0.799702
 C         3.034665         0.701245         0.039857
 O         3.451008        -0.144464         1.139098
 C         2.647886         2.186971         0.062550
 H         0.053874         3.020995        -1.165363
 H         1.366266         3.908926        -1.925556
 H         0.712065         2.432592        -2.856119
 H         2.405922         1.221796        -3.148059
 H         4.071249         1.843949        -2.505991
 H         3.205273        -1.573974        -1.944267
 H         0.916972        -0.012504        -0.502253
 H         4.090592         0.461431         1.632502
 H         1.928433         2.341895         0.903823
 H         3.305157         2.991199        -0.024623
