19
Iteration:  2907charge 0 multiplicity 1
 C         0.926002         2.950288        -1.824756
 C         1.938520         1.921809        -1.323552
 C         3.057118         1.433100        -2.316076
 C         3.122346         0.222430        -1.378330
 O         3.655729        -1.073266        -1.639409
 C         1.774072         0.480985        -0.742611
 C         3.077491         0.767643         0.126353
 O         3.588728        -0.085645         1.126753
 C         2.669100         2.221452         0.108480
 H         0.253914         3.237530        -1.035822
 H         1.398604         3.956504        -2.154862
 H         0.344414         2.565415        -2.667279
 H         2.799220         1.317017        -3.367501
 H         3.953437         2.091619        -2.453495
 H         4.575419        -1.045756        -1.976859
 H         1.039118        -0.237694        -0.579111
 H         3.864631        -0.863354         0.571484
 H         1.825652         2.489973         0.656820
 H         3.491552         2.981505         0.045652
