19
Iteration:   983
 C         0.796295         2.756021        -1.822661
 C         1.975428         1.963951        -1.264001
 C         3.083599         1.516014        -2.286358
 C         3.155837         0.205300        -1.454229
 O         3.711150        -1.015400        -1.629134
 C         1.743019         0.440918        -0.826852
 C         3.059427         0.685210         0.008418
 O         3.548908         0.027861         1.189128
 C         2.821007         2.229736         0.031509
 H        -0.159314         2.786436        -1.251066
 H         1.074564         3.807125        -2.036109
 H         0.660551         2.324731        -2.806176
 H         2.573485         1.549851        -3.291305
 H         3.949660         2.110978        -2.069293
 H         4.636328        -0.981047        -1.175134
 H         0.963190        -0.174678        -0.598750
 H         2.874977        -0.637791         1.418777
 H         2.338195         2.458906         0.980794
 H         3.553002         2.917818        -0.143846
