19
Iteration:  4272charge 0 multiplicity 1
 C         0.850464         2.864806        -1.698347
 C         1.989241         1.979657        -1.315944
 C         3.069230         1.404619        -2.337192
 C         3.281679         0.263116        -1.340937
 O         3.963321        -0.971876        -1.579247
 C         1.793536         0.383857        -0.888587
 C         2.892705         0.714654         0.042822
 O         3.428747        -0.018497         1.159837
 C         2.735416         2.240080         0.033254
 H         0.170310         3.158935        -0.875189
 H         1.219428         3.800783        -2.266841
 H         0.243293         2.428149        -2.564740
 H         2.537230         1.235038        -3.283127
 H         4.049789         1.934861        -2.676368
 H         3.205456        -1.507101        -1.972900
 H         0.777353        -0.112319        -0.920621
 H         2.961026        -0.887517         1.112501
 H         1.940140         2.535749         0.769538
 H         3.531378         2.981590         0.076977
