19
Iteration:   183
 C         0.882526         2.829361        -1.697241
 C         2.029393         1.968207        -1.240951
 C         2.931596         1.434655        -2.340244
 C         3.135023         0.155664        -1.473087
 O         3.962984        -0.976935        -1.686979
 C         1.680263         0.481555        -0.857331
 C         2.961022         0.689534         0.075956
 O         3.509754        -0.039752         1.086338
 C         2.802451         2.248591         0.083860
 H         0.062057         2.929504        -0.980854
 H         1.146653         3.787689        -2.072747
 H         0.507028         2.276737        -2.560522
 H         2.263688         1.115993        -3.084249
 H         3.734622         2.094354        -2.670869
 H         4.130131        -1.350345        -0.809933
 H         0.778186         0.057621        -0.973996
 H         3.167363         0.236061         1.977164
 H         2.034032         2.465035         0.835832
 H         3.795168         2.888249        -0.049883
