19
Iteration:  2000
 C         0.815947         2.984617        -1.631121
 C         1.995706         1.948215        -1.262606
 C         2.941807         1.435040        -2.370805
 C         3.147473         0.144599        -1.439692
 O         3.945588        -1.008329        -1.605452
 C         1.755478         0.436531        -0.935899
 C         2.993936         0.638948        -0.009109
 O         3.479938         0.005897         1.088385
 C         2.791326         2.164278         0.027226
 H         0.321038         3.226158        -0.711412
 H         1.394522         3.882656        -1.839779
 H         0.186245         2.583626        -2.401217
 H         2.509811         1.187686        -3.356716
 H         3.814944         1.988357        -2.503477
 H         4.353598        -1.490311        -0.870109
 H         1.026443        -0.191005        -0.725831
 H         2.804733         0.246769         1.771622
 H         2.140531         2.498137         0.877113
 H         3.585325         3.001977         0.104227
