19
Iteration:   888charge 0 multiplicity 1
 C         0.868629         2.805211        -1.769393
 C         1.943162         1.918006        -1.271579
 C         3.013587         1.329110        -2.360739
 C         3.113364         0.162954        -1.361651
 O         3.937671        -0.840927        -1.754614
 C         1.701994         0.455657        -0.799015
 C         2.958457         0.736861         0.131262
 O         3.488055        -0.061890         1.157535
 C         2.829841         2.248582         0.002035
 H         0.189852         3.140252        -0.940434
 H         1.418728         3.818633        -1.962189
 H         0.366063         2.398140        -2.638929
 H         2.606916         1.125533        -3.369594
 H         3.971266         1.921226        -2.293155
 H         3.815941        -1.602045        -1.176748
 H         0.884069        -0.119852        -0.802901
 H         3.086360         0.208061         2.034577
 H         2.142521         2.692645         0.765258
 H         3.802901         2.912353        -0.300301
