19
Iteration:  4313
 C         0.815736         2.901926        -1.854459
 C         1.958305         1.951023        -1.287439
 C         3.140416         1.526849        -2.200476
 C         3.116210         0.176624        -1.378713
 O         3.891129        -0.979528        -1.581538
 C         1.740547         0.415000        -0.882055
 C         3.004470         0.713141         0.104683
 O         3.521898        -0.034315         1.082038
 C         2.708212         2.169824         0.061310
 H        -0.028937         2.984399        -1.181409
 H         1.273074         3.774640        -2.243419
 H         0.365015         2.398051        -2.732486
 H         2.935514         1.099325        -3.200332
 H         4.082182         2.062593        -2.310943
 H         3.733704        -1.408177        -2.409319
 H         0.994082        -0.297967        -0.619231
 H         2.915148        -0.211220         1.788251
 H         2.011744         2.529875         0.874621
 H         3.550938         2.966321        -0.102942
