19
Iteration:   210
 C         0.814479         2.910520        -1.722650
 C         1.935053         1.856446        -1.322628
 C         3.050716         1.377487        -2.314716
 C         3.226882         0.270684        -1.327987
 O         3.796741        -0.851055        -1.741910
 C         1.804138         0.428243        -0.696003
 C         3.025577         0.751317         0.120831
 O         3.485211        -0.128292         1.080784
 C         2.796536         2.217343        -0.074454
 H        -0.073382         3.126043        -1.074140
 H         1.209399         3.979312        -1.987723
 H         0.431474         2.465101        -2.687403
 H         2.823756         0.861582        -3.336473
 H         3.933040         2.060884        -2.538659
 H         4.172446        -1.312123        -0.971923
 H         0.948187        -0.404134        -0.248941
 H         2.783499        -0.479230         1.681872
 H         2.065127         2.705105         0.634045
 H         3.599919         2.852362        -0.228448
