19
Iteration:  1981charge 0 multiplicity 1
 C         0.890560         2.905169        -1.693751
 C         1.963581         1.966030        -1.350606
 C         3.020088         1.416054        -2.363033
 C         3.165646         0.290616        -1.436171
 O         3.809672        -0.927742        -1.639161
 C         1.743699         0.394005        -0.814700
 C         2.943232         0.671355         0.059209
 O         3.555108        -0.069789         1.116024
 C         2.773897         2.147667         0.034002
 H         0.024572         2.886544        -0.967912
 H         1.333487         3.946455        -1.669874
 H         0.458512         2.480348        -2.704721
 H         2.510021         1.064621        -3.269875
 H         3.815784         2.111546        -2.759396
 H         4.328805        -1.094840        -0.839810
 H         0.878564        -0.196838        -0.892227
 H         3.062681         0.038023         1.993021
 H         2.165038         2.480214         0.962480
 H         3.820562         2.679412        -0.089598
