19
Iteration:  2361
 C         0.803623         2.833463        -1.695591
 C         2.027345         1.979581        -1.273178
 C         3.011437         1.469949        -2.338834
 C         3.102143         0.184681        -1.442693
 O         3.883179        -0.982464        -1.627776
 C         1.763702         0.507806        -0.878529
 C         2.999646         0.679801         0.089834
 O         3.505299        -0.068697         1.091898
 C         2.867649         2.217666         0.040754
 H         0.161340         3.246941        -0.884980
 H         1.137140         3.755310        -2.355893
 H         0.171773         2.395913        -2.472111
 H         2.435267         1.307512        -3.342532
 H         3.855982         2.058791        -2.590076
 H         3.568453        -1.535050        -0.833788
 H         0.893690        -0.065378        -0.964817
 H         2.856317        -0.003229         1.869130
 H         2.232180         2.408152         0.825741
 H         3.817871         2.700094        -0.082478
