19
Iteration:    76charge 0 multiplicity 1
 C         0.850082         2.787095        -1.776202
 C         1.968854         1.905920        -1.346093
 C         2.999380         1.466554        -2.257024
 C         3.167149         0.211227        -1.360501
 O         3.802384        -1.010654        -1.810484
 C         1.767743         0.411447        -0.774530
 C         2.952606         0.755236         0.144715
 O         3.512536         0.040062         1.169021
 C         2.846388         2.264055         0.030237
 H         0.064263         2.893602        -0.962221
 H         1.291008         3.813991        -1.915618
 H         0.379937         2.410336        -2.724435
 H         2.649190         1.303651        -3.275903
 H         3.826053         2.248590        -2.249523
 H         4.477361        -1.301380        -1.163191
 H         0.817058        -0.026664        -0.511812
 H         3.115541        -0.888071         1.028504
 H         2.209209         2.684805         0.854926
 H         3.746180         2.702236        -0.129287
