19
Iteration:  2437
 C         0.939596         2.904974        -1.817483
 C         1.968068         1.964606        -1.191355
 C         2.953592         1.462766        -2.279092
 C         3.105464         0.238079        -1.433106
 O         3.735263        -1.029553        -1.677157
 C         1.741635         0.375994        -0.834223
 C         3.005268         0.697634         0.024884
 O         3.611304         0.055107         1.149645
 C         2.794133         2.120134         0.065122
 H         0.119713         3.100309        -1.132436
 H         1.323767         3.963040        -2.075835
 H         0.617668         2.549728        -2.769638
 H         2.562049         1.227934        -3.307523
 H         3.868512         1.907789        -2.487593
 H         4.564784        -0.922065        -1.231303
 H         0.802046        -0.235347        -0.728479
 H         2.841975        -0.457736         1.353212
 H         2.130159         2.354298         0.962932
 H         3.772404         2.859372         0.059005
