19
Iteration:    97
 C         0.849152         2.804509        -1.798076
 C         1.958157         2.030417        -1.183292
 C         3.012676         1.408594        -2.326486
 C         3.121483         0.218407        -1.485156
 O         3.774373        -0.969278        -1.678992
 C         1.760170         0.487541        -0.764900
 C         3.078664         0.621694        -0.029065
 O         3.544746         0.039454         1.148372
 C         2.780592         2.200076         0.110942
 H        -0.159070         3.018034        -1.317252
 H         1.261967         3.813202        -2.093993
 H         0.689675         2.202092        -2.737983
 H         2.415778         1.371573        -3.224719
 H         3.998225         1.942182        -2.534116
 H         4.533964        -0.902060        -0.996475
 H         1.026402        -0.253006        -0.668952
 H         2.980995        -0.674575         1.360437
 H         2.058091         2.168992         1.016815
 H         3.599554         2.868552         0.016374
