19
Iteration:  4633
 C         0.900851         2.957558        -1.781092
 C         1.922018         1.886125        -1.437257
 C         3.090535         1.481749        -2.323135
 C         3.123485         0.227781        -1.399635
 O         3.835436        -0.965800        -1.573066
 C         1.723375         0.389002        -0.830836
 C         3.046891         0.701731         0.106627
 O         3.624237        -0.070675         1.101940
 C         2.589522         2.227530         0.065899
 H         0.157981         3.224567        -1.037445
 H         1.560056         3.861452        -2.053751
 H         0.416778         2.601399        -2.736925
 H         2.717035         1.223626        -3.367055
 H         4.035572         1.976212        -2.257372
 H         4.308136        -1.067251        -0.755460
 H         0.708591        -0.195207        -0.808109
 H         3.030433        -0.771218         1.337315
 H         1.801988         2.308293         0.820603
 H         3.394798         2.891565         0.204367
