19
Iteration:  3958charge 0 multiplicity 1
 C         0.847523         2.775252        -1.753230
 C         2.000502         1.974554        -1.321543
 C         3.098860         1.422632        -2.397521
 C         3.091270         0.119532        -1.437710
 O         3.873903        -0.920915        -1.694422
 C         1.700713         0.490900        -0.807680
 C         2.952493         0.730080         0.130073
 O         3.387645        -0.017062         1.125465
 C         2.902020         2.182026         0.041955
 H         0.280356         2.866826        -0.760361
 H         1.124368         3.822915        -2.090620
 H         0.079527         2.240086        -2.352260
 H         2.787341         1.146105        -3.463364
 H         4.011010         2.034379        -2.319569
 H         4.079706        -1.324449        -0.853095
 H         0.699313         0.017435        -0.567617
 H         3.890905         0.425674         1.783863
 H         2.211421         2.491542         0.841816
 H         3.768352         2.872623         0.039522
