19
Iteration:   530
 C         0.807821         2.878114        -1.643100
 C         1.952309         1.910836        -1.265658
 C         2.995118         1.479817        -2.272782
 C         3.147722         0.210126        -1.422086
 O         3.955439        -0.961693        -1.551423
 C         1.696814         0.470754        -0.835585
 C         3.004045         0.674556        -0.018546
 O         3.466103        -0.075880         1.009643
 C         2.865514         2.218714        -0.082419
 H         0.087008         3.093134        -0.819949
 H         1.223733         3.741505        -2.107188
 H         0.242898         2.389709        -2.451127
 H         2.584704         1.005935        -3.209322
 H         3.920638         2.108196        -2.411566
 H         4.501074        -1.083858        -0.771623
 H         0.644506        -0.107222        -0.571328
 H         2.691596        -0.242162         1.532774
 H         2.269180         2.610484         0.811416
 H         3.705380         2.895476        -0.240463
