19
Iteration:   852charge 0 multiplicity 1
 C         0.823713         2.789061        -1.737913
 C         1.956404         1.957694        -1.254615
 C         3.008594         1.429576        -2.297989
 C         3.206748         0.236332        -1.373155
 O         3.873533        -1.037132        -1.735696
 C         1.815805         0.500478        -0.811157
 C         3.004134         0.757290         0.073740
 O         3.454728        -0.058356         1.126721
 C         2.799385         2.302740        -0.024507
 H         0.016770         2.828348        -1.011870
 H         1.123776         3.799354        -2.075679
 H         0.346387         2.353955        -2.628046
 H         2.576918         1.102951        -3.319827
 H         3.985260         1.940468        -2.460021
 H         4.107047        -1.572736        -0.954550
 H         0.876215        -0.109116        -0.575656
 H         2.640265        -0.231733         1.675147
 H         2.209440         2.673743         0.877435
 H         3.736243         2.993174        -0.064010
