19
Iteration:  4839charge 0 multiplicity 1
 C         0.802491         2.829876        -1.773863
 C         1.936770         1.871501        -1.314218
 C         3.168571         1.469067        -2.162380
 C         3.186238         0.202078        -1.445460
 O         3.797508        -1.065926        -1.683878
 C         1.800268         0.349328        -0.824311
 C         2.956678         0.744505         0.060305
 O         3.423346         0.002029         1.122999
 C         2.794453         2.302144         0.044403
 H         0.072497         2.830746        -0.996855
 H         1.046485         3.885740        -1.828674
 H         0.383256         2.523116        -2.755987
 H         2.940169         1.211990        -3.180255
 H         4.003607         2.150253        -2.073762
 H         4.333925        -0.984339        -2.487694
 H         0.914979        -0.213186        -0.722379
 H         3.283689         0.733210         1.751909
 H         2.292242         2.544767         0.991820
 H         3.686707         3.033522        -0.118698
