19
Iteration:  1684
 C         0.875369         2.908521        -1.682672
 C         2.029590         1.892948        -1.334520
 C         2.933276         1.384224        -2.390247
 C         3.198554         0.270539        -1.389726
 O         3.887617        -0.913227        -1.729587
 C         1.743152         0.460205        -0.768207
 C         2.864941         0.680640         0.088874
 O         3.435493        -0.000951         1.179360
 C         2.897112         2.186194         0.025470
 H         0.339029         2.995364        -0.746987
 H         1.265164         3.788258        -2.191810
 H         0.119482         2.375696        -2.325283
 H         2.241627         1.059798        -3.209596
 H         3.872810         1.931516        -2.762012
 H         4.503228        -1.227428        -1.070337
 H         0.966585        -0.269430        -1.037103
 H         3.050655        -0.793328         1.501628
 H         2.309047         2.617748         0.864812
 H         3.899797         2.685050        -0.189912
