19
Iteration:  4299
 C         0.852229         2.829442        -1.807757
 C         1.920518         1.889632        -1.304463
 C         3.138995         1.484524        -2.331745
 C         3.211020         0.302670        -1.422229
 O         3.851527        -0.907711        -1.504498
 C         1.787343         0.349011        -0.821137
 C         2.938796         0.674995         0.025123
 O         3.519879        -0.049015         1.149058
 C         2.740036         2.199019         0.038646
 H         0.159237         3.291126        -1.065208
 H         1.362865         3.732254        -2.135933
 H         0.340800         2.454960        -2.677370
 H         2.730980         1.585125        -3.403781
 H         4.036100         2.129515        -2.214122
 H         3.292392        -1.414441        -2.182864
 H         0.889879        -0.192717        -0.904151
 H         2.715826        -0.507195         1.529657
 H         2.078057         2.474078         0.847270
 H         3.635311         2.929111         0.003924
