19
Iteration:   594
 C         0.846613         2.842069        -1.846153
 C         1.899016         1.905129        -1.319939
 C         3.060868         1.512646        -2.284258
 C         3.217615         0.244125        -1.363660
 O         3.719273        -0.913171        -1.753579
 C         1.789027         0.387130        -0.749589
 C         2.973287         0.651794         0.081216
 O         3.600196         0.007550         1.136223
 C         2.798996         2.145052         0.096413
 H         0.054909         2.934843        -1.105572
 H         1.333598         3.791069        -2.075135
 H         0.450421         2.507200        -2.785048
 H         2.723291         0.998596        -3.249484
 H         3.972217         2.316734        -2.398127
 H         3.883495        -1.325404        -0.919693
 H         0.986576        -0.446847        -0.900798
 H         2.949280        -0.093208         1.845731
 H         2.033424         2.730862         0.754676
 H         3.720521         2.749490        -0.042825
