19
Iteration:  2687charge 0 multiplicity 1
 C         0.850171         2.895769        -1.654415
 C         1.988785         1.924925        -1.355312
 C         3.088068         1.456103        -2.347674
 C         3.152868         0.162857        -1.426300
 O         3.739532        -1.023444        -1.722644
 C         1.754462         0.387783        -0.766643
 C         2.986212         0.757132         0.082413
 O         3.516101        -0.077076         1.173223
 C         2.846315         2.300578        -0.056829
 H         0.140725         3.046465        -0.787330
 H         1.261782         3.853245        -2.125470
 H         0.167473         2.537159        -2.429991
 H         2.514842         1.140424        -3.195333
 H         3.976719         2.046705        -2.424373
 H         4.536227        -1.039371        -1.197239
 H         0.822762        -0.008058        -0.573280
 H         2.727360        -0.188216         1.781772
 H         2.152098         2.647876         0.707798
 H         3.850363         2.870921        -0.057354
