19
Iteration:  1885charge 0 multiplicity 1
 C         0.815575         2.937941        -1.641906
 C         1.939521         1.921036        -1.396204
 C         3.106536         1.413982        -2.265716
 C         3.143412         0.227649        -1.311134
 O         3.814415        -0.950462        -1.687430
 C         1.772313         0.403854        -0.834526
 C         2.949935         0.718544         0.060315
 O         3.553355        -0.126336         1.060418
 C         2.752264         2.258175        -0.050160
 H         0.377872         3.444975        -0.748660
 H         1.267924         3.806599        -2.100949
 H         0.003396         2.500246        -2.211914
 H         2.966279         1.026041        -3.271968
 H         4.012419         2.087874        -2.451619
 H         4.250830        -1.273534        -0.845747
 H         1.065699        -0.355543        -0.908368
 H         2.973638        -0.138170         1.854541
 H         2.050680         2.586043         0.750544
 H         3.633810         2.893331        -0.152993
