19
Iteration:  1230charge 0 multiplicity 1
 C         0.866483         2.866454        -1.782680
 C         1.908115         1.919859        -1.350629
 C         3.044791         1.415066        -2.278698
 C         3.163922         0.240575        -1.330414
 O         3.833676        -1.000663        -1.553191
 C         1.682222         0.446582        -0.838786
 C         2.906239         0.722413         0.131903
 O         3.541956        -0.027328         1.069280
 C         2.773583         2.200471        -0.006653
 H         0.338282         3.163901        -0.864094
 H         1.375863         3.780356        -2.079455
 H         0.177609         2.415004        -2.578300
 H         2.567713         1.196327        -3.208695
 H         3.852699         2.133984        -2.738287
 H         4.685667        -0.589216        -1.512471
 H         0.837258        -0.329511        -0.585600
 H         4.222919        -0.520987         0.586384
 H         2.215109         2.676439         0.830600
 H         3.803789         2.708097        -0.010584
