19
Iteration:  2573charge 0 multiplicity 1
 C         0.951180         2.945516        -1.836857
 C         1.944956         1.945001        -1.245656
 C         3.040768         1.370675        -2.286297
 C         3.038592         0.173475        -1.435845
 O         3.792314        -0.914522        -1.706837
 C         1.764164         0.394648        -0.751542
 C         2.905127         0.670965         0.157636
 O         3.674043        -0.049300         1.012123
 C         2.753831         2.241494         0.122741
 H         0.311307         3.366996        -1.018810
 H         1.472212         3.674985        -2.454424
 H         0.272987         2.376494        -2.589227
 H         2.594939         1.321351        -3.272409
 H         3.908298         2.020224        -2.340111
 H         3.598657        -1.612032        -1.063304
 H         0.807108        -0.127469        -0.744350
 H         3.249715         0.076353         1.915302
 H         2.100397         2.619653         0.855245
 H         3.686487         2.729183        -0.248805
