19
Iteration:    72charge 0 multiplicity 1
 C         0.839955         2.790456        -1.744899
 C         1.958879         1.910876        -1.374947
 C         3.017941         1.429338        -2.258755
 C         3.184137         0.205771        -1.333123
 O         3.787670        -0.988067        -1.821780
 C         1.778685         0.410520        -0.781678
 C         2.934879         0.755806         0.154319
 O         3.511677         0.024283         1.179130
 C         2.837366         2.294818         0.018851
 H         0.071269         2.965859        -0.976262
 H         1.273723         3.778674        -1.869195
 H         0.356579         2.433895        -2.662863
 H         2.716749         1.296018        -3.302599
 H         3.832782         2.165024        -2.158724
 H         4.460543        -1.271572        -1.182145
 H         0.881238        -0.155342        -0.619224
 H         3.169127        -0.838560         1.002523
 H         2.126916         2.721321         0.804022
 H         3.938362         2.684778        -0.293626
