19
Iteration:  3883
 C         0.904725         2.929871        -1.818368
 C         1.941138         1.960891        -1.253132
 C         3.000070         1.341814        -2.251211
 C         3.109049         0.149885        -1.352786
 O         3.888431        -0.950329        -1.673198
 C         1.726368         0.472884        -0.891069
 C         3.034702         0.779740         0.050394
 O         3.509093        -0.083788         1.125234
 C         2.668376         2.182651         0.042359
 H        -0.013593         3.128877        -1.118909
 H         1.300234         3.977921        -1.897788
 H         0.691558         2.470302        -2.824352
 H         2.597883         1.004007        -3.201269
 H         3.908868         1.900422        -2.540071
 H         3.797201        -1.420214        -0.796729
 H         0.833306        -0.095944        -0.519295
 H         4.415212         0.305410         1.031743
 H         2.102335         2.612607         0.842020
 H         3.630817         2.773000         0.093657
