19
Iteration:  3502
 C         0.830064         2.762428        -1.751875
 C         2.067349         1.960707        -1.327955
 C         3.113672         1.406975        -2.257806
 C         3.156075         0.256797        -1.414782
 O         3.793213        -0.921108        -1.716679
 C         1.699300         0.468671        -0.791780
 C         2.924000         0.725055         0.082084
 O         3.419749        -0.163544         1.152612
 C         2.834996         2.289470        -0.015544
 H         0.249304         3.140858        -0.806500
 H         1.179411         3.698150        -2.231141
 H        -0.020389         2.436906        -2.430088
 H         2.687937         1.123589        -3.260063
 H         4.018665         2.116034        -2.260369
 H         4.281397        -1.295261        -0.967513
 H         0.930530        -0.266885        -0.778431
 H         4.134043         0.300150         1.582720
 H         2.017783         2.887564         0.594602
 H         3.842645         2.693450        -0.072796
