19
Iteration:  3392charge 0 multiplicity 1
 C         0.796507         2.820410        -1.906557
 C         2.031850         2.005336        -1.227576
 C         3.115196         1.556690        -2.317404
 C         3.132659         0.173326        -1.433505
 O         3.823812        -1.041292        -1.712918
 C         1.762698         0.429264        -0.771689
 C         2.952163         0.731932         0.074684
 O         3.445840        -0.036016         1.173921
 C         2.797224         2.206204         0.095650
 H         0.268416         2.800553        -0.944988
 H         1.048536         3.855164        -2.019744
 H         0.425146         2.378311        -2.819231
 H         2.705582         1.343697        -3.248558
 H         3.965593         2.217234        -2.394595
 H         3.757230        -1.530547        -0.895492
 H         0.798757         0.084738        -0.540401
 H         4.350804        -0.282307         0.899777
 H         2.056094         2.217063         0.876913
 H         3.488098         3.001816         0.162922
