19
Iteration:  3742charge 0 multiplicity 1
 C         0.933302         2.954652        -1.769328
 C         1.934114         1.942359        -1.265617
 C         2.938765         1.353787        -2.373180
 C         3.099189         0.159777        -1.443617
 O         3.925454        -0.953470        -1.576962
 C         1.788827         0.412252        -0.828300
 C         2.976902         0.742148         0.049479
 O         3.430283        -0.086020         1.112623
 C         2.754654         2.210271         0.060515
 H         0.128872         3.106891        -1.012277
 H         1.428789         3.891030        -1.771304
 H         0.706517         2.753119        -2.811584
 H         2.257788         1.316696        -3.216674
 H         3.884845         1.855078        -2.757754
 H         4.375587        -1.278904        -0.818132
 H         0.909415        -0.191377        -0.802847
 H         4.335648         0.182120         1.188245
 H         1.938407         2.547887         0.797224
 H         3.468809         3.065464         0.093430
