19
Iteration:  1328charge 0 multiplicity 1
 C         0.799384         2.739714        -1.597333
 C         2.077499         1.948432        -1.342334
 C         3.075572         1.359277        -2.343915
 C         3.106564         0.184723        -1.416638
 O         3.808574        -0.986582        -1.742407
 C         1.761372         0.503143        -0.859430
 C         2.985684         0.733540         0.159476
 O         3.402915         0.147923         1.231590
 C         2.864290         2.170410        -0.047493
 H         0.128736         2.877249        -0.721260
 H         1.070886         3.760231        -1.888458
 H         0.266210         2.275717        -2.494749
 H         2.619807         1.143574        -3.263949
 H         3.964966         1.836475        -2.617527
 H         4.736126        -0.821571        -1.796359
 H         0.703890         0.069865        -0.761702
 H         3.633615        -0.742535         1.002559
 H         1.975805         2.333220         0.604138
 H         3.709545         2.948589         0.105120
