19
Iteration:  2012charge 0 multiplicity 1
 C         0.894926         2.962333        -1.559611
 C         1.899694         1.963868        -1.322494
 C         3.040758         1.395581        -2.288505
 C         3.199111         0.143598        -1.432344
 O         3.979859        -1.042306        -1.677826
 C         1.725544         0.383675        -0.844184
 C         2.995825         0.761213        -0.042709
 O         3.441452        -0.026821         1.066383
 C         2.732615         2.231993        -0.021351
 H         0.383580         3.252874        -0.650234
 H         1.245770         3.850579        -2.099586
 H         0.067401         2.666897        -2.240632
 H         2.537912         1.158389        -3.224790
 H         3.854052         2.043171        -2.458455
 H         4.028731        -1.257540        -0.687116
 H         0.872981        -0.090825        -0.614652
 H         2.868790         0.049858         1.810787
 H         2.106446         2.392596         0.889497
 H         3.680752         2.853881        -0.202734
