19
Iteration:  2476charge 0 multiplicity 1
 C         0.872824         2.980206        -1.627612
 C         1.946356         1.936614        -1.410169
 C         3.074688         1.347563        -2.369305
 C         3.192771         0.230319        -1.403320
 O         3.719431        -0.992864        -1.732302
 C         1.772772         0.361287        -0.800941
 C         2.976260         0.762010         0.149557
 O         3.518444        -0.022730         1.184731
 C         2.840397         2.279814        -0.038080
 H         0.107333         2.460139        -0.964256
 H         0.998055         4.046568        -1.554875
 H         0.326833         2.602122        -2.607257
 H         2.727643         0.903290        -3.280381
 H         3.941895         2.147997        -2.426717
 H         4.396772        -1.237932        -1.037962
 H         0.877931        -0.137333        -0.604956
 H         3.016971        -0.890201         1.325567
 H         2.069250         2.688938         0.621546
 H         3.860080         2.824573        -0.097438
