19
Iteration:  3438charge 0 multiplicity 1
 C         0.934540         2.929497        -1.710630
 C         1.954596         1.885751        -1.361088
 C         3.031957         1.378401        -2.374501
 C         3.186354         0.180088        -1.402406
 O         3.926226        -0.893447        -1.667513
 C         1.695518         0.453521        -0.779406
 C         2.884646         0.704176         0.097665
 O         3.448012        -0.082505         1.127652
 C         2.713358         2.254376         0.027777
 H         0.227579         2.955093        -0.831983
 H         1.444069         3.850587        -1.857171
 H         0.686868         2.588046        -2.714801
 H         2.408907         1.205055        -3.258299
 H         3.939057         1.887685        -2.542966
 H         3.628121        -1.553550        -1.060322
 H         1.117247        -0.360058        -0.440216
 H         4.355037         0.112017         1.333924
 H         1.965172         2.625722         0.663285
 H         3.664281         2.802977        -0.008180
