19
Iteration:  1819
 C         0.894891         2.878138        -1.771429
 C         1.947040         1.939498        -1.329089
 C         2.992010         1.388570        -2.377556
 C         3.159856         0.253672        -1.313729
 O         3.845482        -0.847817        -1.681173
 C         1.726007         0.468811        -0.761421
 C         2.976485         0.710716         0.170477
 O         3.554789        -0.211385         1.093834
 C         2.793912         2.238255        -0.041488
 H         0.074054         3.168266        -1.064403
 H         1.427115         3.881586        -1.832510
 H         0.220018         2.809916        -2.642103
 H         2.758516         0.920815        -3.371913
 H         3.819100         2.147565        -2.688460
 H         4.000776        -1.360929        -0.896899
 H         0.983072        -0.189334        -0.598133
 H         2.879494        -0.497111         1.737215
 H         2.061926         2.654464         0.732920
 H         3.735741         2.805275        -0.272463
