19
Iteration:   820charge 0 multiplicity 1
 C         0.840044         2.840615        -1.736992
 C         1.928595         1.956284        -1.321024
 C         3.069706         1.546719        -2.327277
 C         3.219144         0.246842        -1.431231
 O         3.721029        -0.988934        -1.505973
 C         1.780586         0.408197        -0.842739
 C         2.969288         0.696592         0.003772
 O         3.582420         0.000634         1.062237
 C         2.729482         2.141994        -0.021037
 H         0.179209         2.901206        -0.861925
 H         1.307284         3.818048        -2.075535
 H         0.451203         2.237569        -2.548518
 H         2.704898         1.260686        -3.354780
 H         4.073262         2.015926        -2.272735
 H         4.570898        -1.022655        -1.019408
 H         0.984239        -0.343152        -0.625011
 H         2.852453        -0.338903         1.616890
 H         2.077436         2.391450         0.887859
 H         3.740010         2.776501         0.083279
