19
Iteration:  2795charge 0 multiplicity 1
 C         0.828301         2.863177        -1.694995
 C         2.007901         1.982821        -1.300111
 C         3.011448         1.515113        -2.349653
 C         3.116510         0.196837        -1.402714
 O         3.758534        -1.066707        -1.604133
 C         1.763826         0.514384        -0.849347
 C         2.972878         0.680312         0.042246
 O         3.563011        -0.078938         1.136226
 C         2.854010         2.227924        -0.040342
 H         0.029665         2.892627        -0.883526
 H         1.222619         3.899930        -1.793954
 H         0.351919         2.518229        -2.605013
 H         2.671149         1.129031        -3.288866
 H         3.950027         2.096967        -2.634270
 H         4.518259        -1.168872        -1.016557
 H         0.834582        -0.077027        -0.972228
 H         2.844041        -0.438652         1.723117
 H         2.354881         2.582804         0.886119
 H         3.661682         3.051366        -0.173519
