19
Iteration:  2359
 C         0.819159         2.843469        -1.705706
 C         2.022765         1.963342        -1.256754
 C         3.020026         1.461724        -2.332943
 C         3.101640         0.194859        -1.434817
 O         3.877665        -0.967225        -1.632308
 C         1.765047         0.501913        -0.894144
 C         2.983939         0.688157         0.079432
 O         3.507627        -0.072328         1.106949
 C         2.878448         2.209213         0.022292
 H         0.110538         3.189471        -0.886731
 H         1.137258         3.826169        -2.292709
 H         0.139398         2.321690        -2.394838
 H         2.388028         1.187474        -3.266079
 H         3.853740         2.056005        -2.576103
 H         3.548380        -1.503149        -0.877812
 H         0.881593        -0.067019        -0.985358
 H         2.863572        -0.041055         1.847037
 H         2.209297         2.442007         0.860270
 H         3.864355         2.795563        -0.135691
