19
Iteration:   303
 C         0.788702         2.962276        -1.801989
 C         1.868912         1.905432        -1.322670
 C         3.097476         1.470544        -2.180705
 C         3.211866         0.217554        -1.380161
 O         3.839849        -1.030611        -1.651944
 C         1.780462         0.386557        -0.693560
 C         2.971618         0.735938         0.048692
 O         3.538045        -0.124603         0.923540
 C         2.724425         2.214939         0.008764
 H         0.146743         3.169321        -0.934065
 H         1.310428         3.885190        -1.997303
 H         0.182625         2.648780        -2.659157
 H         2.792920         1.427451        -3.247724
 H         3.939232         2.286181        -2.173035
 H         4.211110        -1.372615        -0.768084
 H         1.206244        -0.446349        -0.371048
 H         3.354383         0.296106         1.786410
 H         2.161175         2.777508         0.741248
 H         3.567079         3.007327        -0.257471
