19
Iteration:  1579
 C         0.869778         2.910487        -1.883039
 C         1.882222         1.916156        -1.255975
 C         3.055889         1.485881        -2.206162
 C         3.148188         0.244464        -1.428885
 O         3.737303        -1.038792        -1.692320
 C         1.776310         0.405754        -0.732250
 C         3.078327         0.737855         0.049637
 O         3.577630        -0.162898         1.089970
 C         2.667034         2.256027         0.015798
 H         0.107727         3.194649        -1.146316
 H         1.321915         3.895118        -1.981664
 H         0.529336         2.552730        -2.867388
 H         2.844717         1.388658        -3.328100
 H         3.839123         2.284082        -2.141576
 H         4.144556        -1.344357        -0.871497
 H         0.908560        -0.257035        -0.507677
 H         4.153241         0.475182         1.496878
 H         2.121380         2.504900         0.924648
 H         3.492247         2.967408        -0.037489
