19
Iteration:  2621charge 0 multiplicity 1
 C         0.840163         2.921340        -1.706707
 C         1.952340         1.968110        -1.311803
 C         3.091966         1.399478        -2.337911
 C         3.179128         0.247388        -1.336649
 O         3.686352        -1.045653        -1.727139
 C         1.770854         0.400221        -0.765885
 C         2.993046         0.748329         0.120700
 O         3.575041        -0.102059         1.096053
 C         2.784433         2.324862        -0.017117
 H        -0.008785         2.907405        -0.954908
 H         1.356567         3.911484        -1.841050
 H         0.521086         2.663427        -2.726538
 H         2.579031         1.014049        -3.291126
 H         4.079978         1.914664        -2.711183
 H         4.508128        -1.252224        -1.191155
 H         0.908548        -0.268010        -0.743675
 H         2.988876        -0.037340         1.839112
 H         2.050826         2.474162         0.732277
 H         3.729489         2.844113        -0.134672
