19
Iteration:  1969charge 0 multiplicity 1
 C         0.902462         2.830433        -1.760258
 C         1.975681         1.918271        -1.282612
 C         3.026443         1.432561        -2.308470
 C         3.166296         0.245352        -1.305322
 O         3.756808        -0.912600        -1.687030
 C         1.741440         0.447100        -0.818753
 C         2.919674         0.697746         0.126880
 O         3.596403        -0.126430         1.035405
 C         2.744283         2.247324         0.002478
 H         0.046032         2.731378        -1.042523
 H         1.259091         3.911256        -1.740649
 H         0.545288         2.802604        -2.866271
 H         2.612179         1.065715        -3.255497
 H         3.944842         2.024553        -2.383170
 H         4.455913        -1.215734        -1.073432
 H         1.045685        -0.257256        -0.863779
 H         3.068626        -0.086376         1.843254
 H         2.197404         2.846677         0.834465
 H         3.697639         2.899036        -0.260319
