19
Iteration:   295charge 0 multiplicity 1
 C         0.757689         2.967977        -1.759593
 C         1.888151         1.933191        -1.269240
 C         3.126274         1.507495        -2.249102
 C         3.231783         0.212981        -1.345246
 O         3.801095        -1.026368        -1.624800
 C         1.752563         0.325631        -0.796629
 C         2.966558         0.728687         0.058153
 O         3.580135        -0.133755         0.956554
 C         2.717620         2.310001        -0.027374
 H         0.065738         3.234099        -0.996048
 H         1.328939         3.832989        -2.104851
 H         0.212190         2.600945        -2.634940
 H         2.831270         1.222367        -3.220727
 H         4.033778         2.014556        -2.089951
 H         4.337946        -1.324723        -0.828208
 H         0.803225        -0.498061        -0.616846
 H         3.603460         0.113585         1.921463
 H         1.983190         2.580343         0.829574
 H         3.652914         2.875806        -0.291456
