19
Iteration:   141charge 0 multiplicity 1
 C         0.847196         2.892918        -1.675690
 C         1.888541         1.886026        -1.306878
 C         3.092595         1.435495        -2.236314
 C         3.175213         0.228321        -1.308302
 O         3.785042        -0.990004        -1.626003
 C         1.757993         0.382185        -0.852447
 C         2.948654         0.800019         0.109717
 O         3.611760        -0.135201         0.956382
 C         2.690869         2.290200        -0.071943
 H         0.221190         3.265913        -0.822002
 H         1.293978         3.842779        -2.017251
 H         0.167898         2.506496        -2.478223
 H         2.906516         1.180205        -3.264847
 H         4.023347         2.040324        -2.151215
 H         4.523109        -1.171760        -0.936094
 H         0.989928        -0.371896        -1.075755
 H         3.424601         0.140138         1.838526
 H         1.920251         2.652868         0.681329
 H         3.606271         2.856217        -0.346777
