19
Iteration:  3277
 C         0.869109         2.993442        -1.752369
 C         1.885801         1.909211        -1.322961
 C         3.018068         1.375389        -2.298001
 C         3.157266         0.214556        -1.404007
 O         3.896687        -0.953521        -1.654312
 C         1.800020         0.428124        -0.834365
 C         2.996038         0.758416         0.139205
 O         3.473832        -0.175377         1.107026
 C         2.733847         2.236334        -0.050726
 H         0.272018         3.117717        -0.873339
 H         1.206613         4.053907        -1.874428
 H         0.405917         2.854519        -2.733146
 H         2.429544         1.124446        -3.247436
 H         3.929255         1.984882        -2.461429
 H         3.907075        -1.348278        -0.794075
 H         1.017176        -0.212098        -0.748434
 H         4.003083        -0.128031         1.881471
 H         1.993000         2.777815         0.563909
 H         3.626498         2.771382        -0.066060
