19
Iteration:  2817charge 0 multiplicity 1
 C         0.825124         2.885607        -1.659826
 C         2.035330         1.920953        -1.256273
 C         3.005469         1.448969        -2.365906
 C         3.158298         0.244103        -1.483877
 O         3.731523        -1.049985        -1.560671
 C         1.842554         0.425295        -0.814827
 C         3.093681         0.722030        -0.044343
 O         3.385916         0.016735         1.095661
 C         2.886738         2.190746         0.027513
 H         0.065587         2.865717        -0.818901
 H         1.161077         3.956405        -1.724270
 H         0.288769         2.518333        -2.523493
 H         2.509467         1.234652        -3.311239
 H         3.876046         2.071046        -2.718227
 H         4.707049        -1.104990        -1.359751
 H         0.997489        -0.201579        -0.339654
 H         2.638233        -0.563363         1.231611
 H         2.195946         2.643028         0.760681
 H         3.755670         2.985439         0.029816
