19
Iteration:   741charge 0 multiplicity 1
 C         0.823560         2.891952        -1.838605
 C         1.932123         1.957649        -1.189696
 C         3.002103         1.487124        -2.317492
 C         3.157039         0.227770        -1.382524
 O         3.848491        -0.979264        -1.736655
 C         1.804227         0.331371        -0.835033
 C         3.005438         0.676161         0.103371
 O         3.509458        -0.041824         1.146686
 C         2.822504         2.240122         0.048590
 H        -0.035410         3.104052        -1.210220
 H         1.298521         3.843316        -2.061056
 H         0.445911         2.313194        -2.733379
 H         2.584089         1.187965        -3.335856
 H         3.835549         2.152530        -2.624071
 H         4.025126        -1.405448        -0.828470
 H         0.963346        -0.429885        -0.663592
 H         2.960593         0.125777         1.925185
 H         2.170914         2.732150         0.846008
 H         3.706214         2.892502        -0.322635
