19
Iteration:   207
 C         0.825589         2.896393        -1.732507
 C         1.923038         1.884229        -1.323327
 C         3.041238         1.358614        -2.337101
 C         3.214517         0.283226        -1.328534
 O         3.807816        -0.847965        -1.741456
 C         1.803895         0.416009        -0.722998
 C         3.024696         0.731002         0.139178
 O         3.483089        -0.118501         1.068688
 C         2.800103         2.239576        -0.031715
 H        -0.001999         3.030610        -1.020215
 H         1.239233         3.899263        -1.976581
 H         0.410502         2.488553        -2.684096
 H         2.679052         0.891732        -3.252660
 H         3.960769         1.917300        -2.507102
 H         4.164633        -1.313939        -0.996194
 H         1.006895        -0.368820        -0.318419
 H         2.762545        -0.370138         1.728763
 H         2.051709         2.697630         0.679274
 H         3.719957         2.813862        -0.232926
