19
Iteration:  2502
 C         0.860307         2.840953        -1.619170
 C         1.940694         1.965385        -1.254779
 C         3.041974         1.438531        -2.322822
 C         3.207402         0.250388        -1.454709
 O         3.772257        -1.026188        -1.611012
 C         1.750927         0.510285        -0.850299
 C         2.990882         0.698045         0.045893
 O         3.465629         0.015512         1.100330
 C         2.897681         2.173842        -0.067941
 H         0.150262         2.797570        -0.814899
 H         1.182288         3.855352        -1.883834
 H         0.406501         2.471932        -2.479500
 H         2.373526         1.118099        -3.207700
 H         3.936662         1.982255        -2.668862
 H         4.516223        -1.017978        -0.972983
 H         0.729058        -0.031597        -0.845873
 H         2.761307        -0.579843         1.491404
 H         2.260271         2.483720         0.771122
 H         3.842059         2.493479        -0.315697
