19
Iteration:  4134
 C         0.853910         2.879166        -1.775138
 C         1.922864         1.889245        -1.326562
 C         3.168144         1.459494        -2.271545
 C         3.171512         0.237436        -1.349931
 O         3.900978        -0.933027        -1.667632
 C         1.690301         0.471695        -0.880512
 C         2.958402         0.636857         0.073314
 O         3.451977         0.008760         1.271293
 C         2.778155         2.181994         0.004663
 H         0.138490         3.081952        -0.954172
 H         1.198256         3.800636        -2.238590
 H         0.355146         2.334651        -2.535681
 H         2.905991         0.966342        -3.268520
 H         3.818879         2.347597        -2.424987
 H         3.313267        -1.691888        -1.664781
 H         0.729013        -0.062781        -1.129268
 H         3.980434        -0.754433         0.963853
 H         2.018273         2.619293         0.663733
 H         3.620529         3.008335        -0.130981
