19
Iteration:  2348charge 0 multiplicity 1
 C         0.869804         2.848975        -1.696407
 C         1.967400         1.974709        -1.278840
 C         3.047232         1.394862        -2.302563
 C         3.197101         0.269478        -1.372427
 O         3.816707        -0.896767        -1.669061
 C         1.718933         0.422085        -0.869790
 C         2.943182         0.704310         0.035170
 O         3.506046        -0.084390         1.129668
 C         2.870000         2.198261        -0.022603
 H         0.273493         2.974807        -0.735676
 H         1.181532         3.917179        -2.096886
 H         0.339625         2.249167        -2.458233
 H         2.511485         0.967959        -3.240392
 H         3.865040         1.965023        -2.658831
 H         3.721705        -1.584356        -1.036310
 H         0.803140        -0.135822        -0.802807
 H         2.836395        -0.179246         1.780086
 H         2.394792         2.807357         0.759066
 H         3.792026         2.893930        -0.176122
