19
Iteration:  4072
 C         0.814486         2.943651        -1.821872
 C         1.948389         1.922559        -1.339146
 C         3.113416         1.420886        -2.248862
 C         3.189608         0.203078        -1.415651
 O         3.839066        -0.982386        -1.531940
 C         1.740246         0.422862        -0.826026
 C         2.979736         0.665169         0.086422
 O         3.478037        -0.019582         1.170213
 C         2.795266         2.242494        -0.011196
 H         0.036043         2.962481        -1.002075
 H         1.073606         4.023468        -1.903679
 H         0.130535         2.643626        -2.706111
 H         2.652582         0.996388        -3.088755
 H         3.922826         2.174511        -2.382953
 H         4.343638        -0.895364        -2.357142
 H         0.893084        -0.349553        -0.886792
 H         3.557876        -0.972015         1.096741
 H         2.060414         2.560939         0.713188
 H         3.525649         2.966295        -0.148008
