19
Iteration:  3314charge 0 multiplicity 1
 C         0.915685         2.908831        -1.716425
 C         2.023951         1.920869        -1.295855
 C         2.984277         1.377384        -2.285597
 C         3.148955         0.173975        -1.462097
 O         3.936312        -0.897139        -1.682305
 C         1.706120         0.392970        -0.799809
 C         2.958300         0.726816        -0.016029
 O         3.330501        -0.002414         1.133664
 C         2.810409         2.154953         0.072110
 H         0.154765         3.094236        -0.942354
 H         1.509850         3.802028        -2.023657
 H         0.262077         2.425242        -2.482198
 H         2.459744         1.189368        -3.148059
 H         3.840924         1.998207        -2.547698
 H         4.250533        -1.154371        -0.808411
 H         0.663526        -0.170107        -0.634290
 H         4.291245         0.002009         1.193558
 H         2.110501         2.622163         0.823680
 H         3.849951         2.641310         0.005336
