19
Iteration:  4037
 C         0.960725         2.852142        -1.761007
 C         2.021406         1.868140        -1.344976
 C         3.062971         1.449161        -2.249161
 C         3.083088         0.162207        -1.431482
 O         3.790865        -0.975032        -1.606732
 C         1.716321         0.366685        -0.829013
 C         2.925906         0.691544         0.070192
 O         3.482631         0.049278         1.147414
 C         2.709594         2.280438         0.080279
 H         0.145780         2.828369        -0.962895
 H         1.442560         3.839704        -1.962800
 H         0.552345         2.518975        -2.762211
 H         2.585784         1.302544        -3.192140
 H         3.978396         2.016120        -2.566189
 H         4.749907        -0.983232        -1.739045
 H         0.780563        -0.107737        -0.977600
 H         4.353230        -0.251215         0.938429
 H         1.987880         2.551931         0.779239
 H         3.517125         2.977504         0.004096
