19
Iteration:  1850charge 0 multiplicity 1
 C         0.890223         2.910924        -1.678990
 C         1.976666         2.024636        -1.261423
 C         2.879607         1.376400        -2.354874
 C         3.095886         0.161406        -1.427520
 O         4.042737        -0.916196        -1.649685
 C         1.708305         0.430389        -0.786911
 C         2.970369         0.672329         0.026744
 O         3.398211        -0.052153         1.013760
 C         2.890976         2.192075         0.049352
 H         0.432876         3.257850        -0.747019
 H         1.498904         3.561915        -2.306950
 H         0.241617         2.466327        -2.481608
 H         2.279995         0.955023        -3.155830
 H         3.712595         2.158011        -2.475560
 H         4.455398        -1.194613        -0.771869
 H         0.898246        -0.215077        -0.711881
 H         2.724675        -0.128290         1.713681
 H         2.256452         2.515072         0.864468
 H         3.744819         2.826990         0.058894
