19
Iteration:  3216charge 0 multiplicity 1
 C         0.814465         2.899343        -1.834110
 C         2.038177         2.011597        -1.279273
 C         3.167359         1.416693        -2.272333
 C         3.151637         0.278809        -1.370102
 O         3.737710        -1.005794        -1.706124
 C         1.713174         0.412582        -0.808230
 C         2.888650         0.698077         0.133108
 O         3.629837        -0.082913         1.062767
 C         2.743232         2.244040         0.041925
 H         0.119275         2.895821        -0.980982
 H         1.019340         3.940878        -2.138656
 H         0.129988         2.318189        -2.470697
 H         2.730659         1.179677        -3.229339
 H         4.166668         1.902061        -2.526217
 H         4.436999        -1.175553        -1.018227
 H         0.816717        -0.262916        -0.740450
 H         2.967975        -0.385888         1.681064
 H         2.022641         2.614313         0.823032
 H         3.753286         2.787513         0.173231
