19
Iteration:  3874
 C         0.893535         2.874111        -1.844673
 C         1.907436         1.975550        -1.288769
 C         3.058706         1.339146        -2.202928
 C         3.104411         0.184219        -1.345834
 O         3.842068        -0.909644        -1.698348
 C         1.669065         0.468738        -0.858330
 C         3.005332         0.690165         0.048034
 O         3.556551        -0.060053         1.124227
 C         2.726327         2.225197         0.010793
 H         0.030847         3.022578        -1.151993
 H         1.425690         3.783111        -1.958188
 H         0.516643         2.721158        -2.863379
 H         2.746696         1.118930        -3.178950
 H         4.044516         1.874464        -2.199350
 H         3.855676        -1.606254        -0.989108
 H         0.771183        -0.057599        -0.415371
 H         4.472461         0.072866         1.469451
 H         1.949797         2.539776         0.797825
 H         3.666665         2.887033         0.067318
