19
Iteration:  3027
 C         0.883877         2.887453        -1.765207
 C         1.991454         1.892785        -1.264517
 C         3.024832         1.472463        -2.275405
 C         3.139340         0.233977        -1.430395
 O         3.701655        -1.028719        -1.743723
 C         1.767658         0.389087        -0.843904
 C         3.061129         0.679422         0.013146
 O         3.460396         0.122527         1.249520
 C         2.893248         2.141816         0.087358
 H         0.106726         3.136217        -1.089339
 H         1.308081         3.883292        -2.062807
 H         0.219076         2.392285        -2.490144
 H         2.630416         1.425117        -3.274337
 H         3.986757         2.018808        -2.608083
 H         4.682380        -1.007492        -1.724011
 H         0.802076        -0.151331        -0.741066
 H         2.981552        -0.751269         1.340185
 H         2.097197         2.258248         0.824625
 H         3.693622         2.860571         0.101494
