19
Iteration:  3491charge 0 multiplicity 1
 C         0.853290         2.858040        -1.712534
 C         1.954550         1.845298        -1.323059
 C         3.129264         1.461388        -2.355621
 C         3.163233         0.232179        -1.356229
 O         3.810302        -0.906825        -1.705816
 C         1.801154         0.415960        -0.781690
 C         2.903522         0.746717         0.173439
 O         3.373323        -0.152061         1.133649
 C         2.815077         2.251569        -0.078135
 H         0.271182         3.202695        -0.765375
 H         1.292249         3.715161        -2.244499
 H         0.211485         2.197104        -2.369953
 H         2.752095         1.261817        -3.403045
 H         4.083317         2.069527        -2.541322
 H         4.273166        -1.224675        -0.940614
 H         0.798728         0.094108        -0.784096
 H         4.225477         0.142701         1.466317
 H         2.308864         2.739017         0.863222
 H         3.634392         2.930588        -0.303919
