19
Iteration:  4242
 C         0.857835         2.850256        -1.698317
 C         1.991185         1.954405        -1.398978
 C         3.064592         1.443614        -2.314615
 C         3.163298         0.193715        -1.378408
 O         3.957190        -0.949550        -1.566914
 C         1.740992         0.396592        -0.832299
 C         2.983007         0.708759         0.017001
 O         3.299353         0.002238         1.230417
 C         2.828343         2.209711        -0.017132
 H         0.131226         2.925939        -0.895111
 H         1.304900         3.827954        -2.042148
 H         0.277759         2.503678        -2.544502
 H         2.690249         1.406670        -3.376616
 H         4.081988         1.908316        -2.349623
 H         3.736549        -1.143004        -2.472014
 H         0.752747        -0.133209        -0.542668
 H         3.955515        -0.657325         1.006538
 H         2.046010         2.406120         0.717468
 H         3.607352         2.956502        -0.014295
