19
Iteration:   231charge 0 multiplicity 1
 C         0.828847         2.865213        -1.775057
 C         1.864194         1.915196        -1.327907
 C         3.032982         1.484152        -2.247716
 C         3.176089         0.205231        -1.384357
 O         3.830811        -1.013447        -1.709272
 C         1.768978         0.455438        -0.753860
 C         3.074803         0.709362         0.078609
 O         3.546581        -0.092835         1.134019
 C         2.760872         2.322922        -0.063196
 H         0.184371         2.977777        -0.880667
 H         1.357030         3.889962        -1.833592
 H         0.223514         2.689324        -2.704013
 H         2.654623         1.356076        -3.299502
 H         4.002601         2.021042        -2.260025
 H         4.318040        -1.348877        -0.881717
 H         0.824252        -0.375735        -0.593455
 H         2.827236        -0.683749         1.333495
 H         2.169620         2.662116         0.864114
 H         3.564301         2.948324        -0.246399
