19
Iteration:  3205
 C         0.835826         2.870339        -1.762466
 C         1.905732         1.939527        -1.304847
 C         3.160094         1.435262        -2.292628
 C         3.168038         0.226220        -1.323827
 O         3.727383        -0.985623        -1.704124
 C         1.809887         0.489624        -0.806043
 C         2.966970         0.740307         0.118938
 O         3.570789        -0.071267         1.063048
 C         2.724980         2.207897         0.031681
 H         0.204717         3.230841        -0.950689
 H         1.311890         3.779285        -2.218217
 H         0.332943         2.456877        -2.655559
 H         2.689568         1.192196        -3.227519
 H         4.142528         2.019855        -2.369006
 H         4.310620        -1.358687        -1.049720
 H         1.022432        -0.256249        -0.769059
 H         2.975771        -0.668140         1.534730
 H         2.096669         2.561179         0.886961
 H         3.524236         2.971114        -0.239071
