19
Iteration:  1534charge 0 multiplicity 1
 C         0.819198         2.900673        -1.669784
 C         2.025415         1.892450        -1.369239
 C         2.974851         1.396937        -2.402669
 C         3.118705         0.267474        -1.379655
 O         3.916891        -0.890416        -1.677781
 C         1.739491         0.449867        -0.860075
 C         2.948123         0.712161         0.143189
 O         3.418995        -0.103402         1.235597
 C         2.855612         2.211492        -0.018422
 H         0.353634         3.218283        -0.737719
 H         1.178662         3.836467        -2.054270
 H         0.202619         2.341645        -2.423093
 H         2.588545         1.046193        -3.419912
 H         3.915620         1.956376        -2.639592
 H         3.758480        -1.658135        -1.126291
 H         0.931124        -0.166817        -0.862112
 H         4.357893        -0.256859         1.180379
 H         2.084454         2.710425         0.601314
 H         3.715703         2.830440        -0.141671
