19
Iteration:  4599charge 0 multiplicity 1
 C         0.880260         2.858419        -1.729836
 C         2.006215         1.918606        -1.339988
 C         3.048405         1.461464        -2.246039
 C         3.154909         0.240370        -1.404706
 O         3.914183        -0.931624        -1.598278
 C         1.738572         0.361596        -0.866928
 C         2.887480         0.745747         0.019896
 O         3.451451        -0.090766         1.030439
 C         2.793252         2.218138         0.078588
 H         0.138344         3.226876        -1.010320
 H         1.192557         3.772950        -2.311415
 H         0.315614         2.325743        -2.563106
 H         2.718919         1.258266        -3.294684
 H         3.887444         2.136945        -2.387321
 H         4.221205        -1.182199        -0.702810
 H         0.856540        -0.377704        -0.851348
 H         2.907643         0.110882         1.781783
 H         2.312609         2.651386         0.934250
 H         3.733606         2.706734        -0.029432
