19
Iteration:  4009charge 0 multiplicity 1
 C         0.805000         2.954304        -1.849499
 C         1.882256         1.903343        -1.379784
 C         3.104961         1.438037        -2.272007
 C         3.249625         0.181879        -1.411862
 O         3.735547        -1.013936        -1.653811
 C         1.822375         0.469816        -0.740735
 C         3.022504         0.697278         0.079213
 O         3.425109        -0.067048         1.138711
 C         2.760284         2.242060         0.114392
 H         0.006029         3.025332        -1.156232
 H         1.347732         3.808268        -2.225197
 H         0.300362         2.548958        -2.731987
 H         2.720272         1.107265        -3.319204
 H         3.940171         2.088093        -2.553651
 H         4.605924        -1.220110        -1.227651
 H         1.084713        -0.337174        -0.381173
 H         4.382018         0.076734         1.111027
 H         1.907118         2.445044         0.879512
 H         3.600469         3.035919        -0.009349
