19
Iteration:  2698
 C         0.894015         2.866631        -1.707698
 C         1.983885         1.880537        -1.283213
 C         3.056705         1.381621        -2.331715
 C         3.150050         0.251419        -1.351795
 O         3.726841        -0.968419        -1.772073
 C         1.754510         0.491420        -0.786090
 C         2.993976         0.687619         0.114128
 O         3.539289        -0.059215         1.148656
 C         2.786941         2.251614        -0.033396
 H         0.376746         3.293806        -0.793553
 H         1.454425         3.818390        -2.039683
 H         0.259152         2.448578        -2.477364
 H         2.802729         1.039896        -3.318587
 H         3.768712         2.100699        -2.647840
 H         4.295659        -1.364608        -1.072492
 H         1.006637        -0.203876        -0.644587
 H         2.887987        -0.299791         1.852677
 H         2.068790         2.783200         0.608841
 H         3.620580         3.019121        -0.321238
