19
Iteration:  3455
 C         0.892434         2.980560        -1.721285
 C         1.944789         1.977014        -1.276652
 C         2.972689         1.347157        -2.371492
 C         3.136320         0.183187        -1.413414
 O         3.994833        -0.968813        -1.640655
 C         1.784414         0.391619        -0.827182
 C         3.039841         0.711089         0.021062
 O         3.349097        -0.037341         1.131925
 C         2.767848         2.190085         0.057937
 H         0.122653         3.140069        -0.950619
 H         1.267988         4.012536        -2.036451
 H         0.257681         2.725537        -2.608579
 H         2.325935         0.956371        -3.223796
 H         3.888873         2.009359        -2.648812
 H         3.872029        -1.542851        -0.900111
 H         0.736120         0.054485        -0.757920
 H         4.302092         0.087174         1.239483
 H         1.975820         2.215924         0.950372
 H         3.531367         2.995119         0.064401
