19
Iteration:  4643
 C         0.966540         2.894521        -1.832416
 C         1.970677         1.917704        -1.350445
 C         3.094205         1.464271        -2.353521
 C         3.097414         0.234298        -1.316744
 O         3.781731        -0.919918        -1.585229
 C         1.725840         0.347749        -0.830135
 C         2.949676         0.747101         0.084435
 O         3.644073        -0.078856         1.095207
 C         2.625554         2.193174         0.067572
 H         0.292855         2.945617        -0.968751
 H         1.520206         3.910915        -1.879179
 H         0.312114         2.795031        -2.751514
 H         2.761433         1.150218        -3.411066
 H         3.991262         2.134335        -2.458432
 H         4.577613        -0.948821        -1.076295
 H         0.817986        -0.398060        -0.881500
 H         3.012758        -0.703888         1.404057
 H         1.725542         2.436170         0.593464
 H         3.261200         2.999302         0.262952
