19
Iteration:   364charge 0 multiplicity 1
 C         0.820328         2.889724        -1.688675
 C         1.922428         1.889156        -1.311679
 C         3.068689         1.446157        -2.332790
 C         3.185920         0.229615        -1.377764
 O         3.835548        -0.954036        -1.715773
 C         1.761317         0.397842        -0.798714
 C         2.954605         0.717111         0.043940
 O         3.491812        -0.028074         1.170428
 C         2.856632         2.224215        -0.009326
 H         0.086554         3.083280        -0.888691
 H         1.223171         3.862510        -2.026851
 H         0.167698         2.626775        -2.516509
 H         2.615935         1.163335        -3.261197
 H         3.852044         2.084061        -2.457598
 H         4.509239        -1.097749        -0.983499
 H         0.974518        -0.217586        -0.671432
 H         2.892755        -0.754857         1.346815
 H         2.113504         2.632495         0.704332
 H         3.731781         2.733564        -0.203693
