19
Iteration:  3075
 C         0.912924         2.812153        -1.779777
 C         2.013841         1.958459        -1.338310
 C         3.109768         1.395804        -2.340095
 C         3.125932         0.261234        -1.381071
 O         3.666601        -0.965652        -1.656331
 C         1.794341         0.500902        -0.802876
 C         2.946095         0.730774         0.100699
 O         3.625910        -0.085167         1.071900
 C         2.695665         2.242633         0.128630
 H         0.165527         2.986177        -0.977371
 H         1.350098         3.786162        -1.981043
 H         0.304533         2.442155        -2.610825
 H         2.670005         1.113931        -3.316969
 H         3.866236         2.106080        -2.668437
 H         4.434800        -1.116455        -1.044871
 H         1.034409        -0.222683        -0.798397
 H         2.948354        -0.668552         1.409077
 H         2.031845         2.578810         0.871369
 H         3.573218         2.912277         0.038290
