19
Iteration:    65charge 0 multiplicity 1
 C         0.816900         2.824943        -1.690080
 C         1.928422         1.896815        -1.315826
 C         3.112589         1.361026        -2.280473
 C         3.194273         0.213880        -1.330773
 O         3.754012        -0.931235        -1.814722
 C         1.787381         0.415416        -0.780695
 C         2.909549         0.764708         0.120777
 O         3.503970        -0.000955         1.207937
 C         2.830164         2.294087        -0.059933
 H         0.036691         2.955933        -0.866859
 H         1.218055         3.842463        -1.971128
 H         0.250255         2.521806        -2.615522
 H         2.875769         1.094494        -3.311932
 H         4.075340         1.983447        -2.312583
 H         4.459728        -1.190242        -1.257350
 H         1.055289        -0.394214        -0.834927
 H         3.277107        -0.971137         1.105812
 H         2.242021         2.931849         0.666862
 H         3.666687         2.822480        -0.229935
