19
Iteration:  4374
 C         0.841667         2.880328        -1.804868
 C         1.884275         1.932149        -1.292762
 C         3.077479         1.569812        -2.309237
 C         3.246083         0.229307        -1.366875
 O         3.970888        -0.990452        -1.620504
 C         1.784420         0.371624        -0.849739
 C         2.979582         0.636114         0.081844
 O         3.334715        -0.045296         1.177386
 C         2.775177         2.175440         0.020113
 H        -0.016310         3.138727        -1.121955
 H         1.221185         3.942631        -1.834795
 H         0.464597         2.580026        -2.776353
 H         2.703875         1.023173        -3.133313
 H         3.869541         2.346163        -2.506040
 H         3.555782        -1.698955        -2.093620
 H         0.952676        -0.238856        -0.832531
 H         3.917753         0.467351         1.723110
 H         2.077965         2.531754         0.737845
 H         3.541916         2.863884        -0.189082
