19
Iteration:  1641
 C         0.823475         2.905563        -1.646893
 C         1.982822         2.008582        -1.325184
 C         3.072695         1.432845        -2.376148
 C         3.119001         0.170028        -1.485018
 O         3.823288        -1.068722        -1.637593
 C         1.789784         0.414270        -0.751615
 C         3.039217         0.743077        -0.021009
 O         3.505934        -0.028463         1.101987
 C         2.753972         2.229702         0.015209
 H         0.126267         2.938724        -0.776362
 H         1.058813         3.958484        -1.933734
 H         0.240382         2.514703        -2.550869
 H         2.828515         1.258245        -3.404837
 H         3.941641         2.083221        -2.170952
 H         4.407791        -0.996323        -0.885807
 H         1.002583        -0.247689        -0.442238
 H         2.742353        -0.431480         1.510908
 H         2.022737         2.566988         0.832931
 H         3.634948         2.983878         0.086124
