19
Iteration:  2260
 C         0.903646         2.868032        -1.763994
 C         1.957994         1.916813        -1.352093
 C         3.174397         1.500868        -2.232657
 C         3.182515         0.249741        -1.312294
 O         3.630218        -1.009710        -1.671310
 C         1.760359         0.434971        -0.901050
 C         2.942901         0.702225         0.135523
 O         3.657036        -0.102319         1.042345
 C         2.666690         2.245788        -0.023409
 H         0.003734         2.977347        -1.092294
 H         1.294201         3.930484        -1.761525
 H         0.199071         2.481290        -2.454936
 H         2.629138         1.065041        -3.123212
 H         4.071780         2.070313        -2.349760
 H         4.451668        -0.939515        -1.194448
 H         0.902571        -0.277456        -0.599755
 H         3.419859        -0.206684         1.947081
 H         2.082056         2.643680         0.764210
 H         3.528324         2.948643        -0.064675
