19
Iteration:  3325charge 0 multiplicity 1
 C         0.856815         2.888294        -1.724911
 C         1.942835         1.949263        -1.235387
 C         3.066017         1.443359        -2.320057
 C         3.095234         0.173674        -1.440465
 O         3.930583        -0.941115        -1.695998
 C         1.752304         0.374036        -0.825441
 C         2.967077         0.650236         0.021487
 O         3.351425        -0.066860         1.195849
 C         2.812828         2.275249        -0.002579
 H         0.242040         3.316660        -0.927752
 H         1.290881         3.824675        -2.171738
 H         0.341417         2.522164        -2.627140
 H         2.615195         1.225400        -3.227403
 H         3.999716         1.991573        -2.455200
 H         4.227152        -1.305591        -0.805242
 H         0.685081        -0.100880        -0.765774
 H         4.341600        -0.017945         1.211170
 H         2.409025         2.558444         0.994066
 H         3.650245         2.985104        -0.276989
