19
Iteration:  4947
 C         0.959321         2.857243        -1.762086
 C         1.992568         1.968498        -1.277360
 C         2.990213         1.351576        -2.331462
 C         3.175370         0.270044        -1.338897
 O         3.978299        -0.889148        -1.537476
 C         1.597715         0.405612        -0.754710
 C         2.776906         0.674149         0.042255
 O         3.607684        -0.122917         0.914936
 C         2.710815         2.212415         0.037440
 H         0.204784         3.258665        -1.068583
 H         1.513516         3.686834        -2.155635
 H         0.376485         2.619423        -2.709494
 H         2.340899         1.265759        -3.195828
 H         3.919144         1.921713        -2.685872
 H         4.525450        -1.113416        -0.766374
 H         0.594409        -0.147355        -0.736959
 H         3.389777         0.082101         1.881729
 H         2.002643         2.693207         0.690674
 H         3.568230         2.971245        -0.061321
