19
Iteration:  3820charge 0 multiplicity 1
 C         0.820909         2.800947        -1.791620
 C         1.953732         2.020156        -1.296184
 C         3.095038         1.425775        -2.320237
 C         3.219800         0.252482        -1.411430
 O         3.785803        -1.015256        -1.706332
 C         1.796011         0.557461        -0.807457
 C         3.106812         0.714742         0.006991
 O         3.367170        -0.040035         1.215609
 C         2.757272         2.189052         0.045184
 H         0.145397         3.042121        -0.977407
 H         1.085948         3.682067        -2.272309
 H         0.225459         2.155312        -2.421145
 H         2.633627         1.012196        -3.180534
 H         3.893830         2.163444        -2.574320
 H         3.901334        -1.572327        -0.888163
 H         0.842507        -0.043401        -0.879539
 H         4.318636        -0.187280         1.401183
 H         2.084246         2.274505         0.946535
 H         3.663570         2.763288         0.208900
