19
Iteration:  4528
 C         0.948266         2.816153        -1.773900
 C         1.938020         1.891126        -1.271872
 C         3.063302         1.502555        -2.261990
 C         3.191144         0.247237        -1.480476
 O         3.890970        -0.922418        -1.645240
 C         1.800218         0.418840        -0.871975
 C         3.027627         0.643296         0.028932
 O         3.333540        -0.002596         1.208680
 C         2.684214         2.192827        -0.014740
 H         0.097348         2.829568        -0.961363
 H         1.259035         3.862658        -1.920763
 H         0.497177         2.447638        -2.722357
 H         2.895130         1.291919        -3.310625
 H         3.783214         2.448233        -2.219456
 H         3.554750        -1.530419        -0.935451
 H         1.003309        -0.339576        -0.614028
 H         4.243011        -0.280838         1.207980
 H         1.990395         2.487357         0.803859
 H         3.488921         2.967565         0.024888
