19
Iteration:  2055
 C         0.831847         2.848589        -1.847906
 C         1.974255         1.984796        -1.211046
 C         3.028497         1.471473        -2.309219
 C         3.151343         0.235063        -1.373376
 O         3.821035        -0.904457        -1.683192
 C         1.718059         0.499231        -0.813116
 C         2.954844         0.643136         0.098788
 O         3.566987        -0.149346         1.088237
 C         2.877746         2.241569         0.076127
 H         0.114845         3.146782        -1.104350
 H         1.225839         3.662008        -2.425714
 H         0.214857         2.149448        -2.409725
 H         2.366667         1.205344        -3.169178
 H         3.876163         2.026700        -2.669637
 H         4.177553        -1.347430        -0.860622
 H         0.861681        -0.028773        -0.837190
 H         2.905119        -0.348902         1.736226
 H         2.072791         2.581734         0.692853
 H         3.785955         2.657422        -0.258638
