19
Iteration:   633
 C         0.903239         2.841743        -1.799190
 C         1.979757         1.900152        -1.314558
 C         3.109432         1.416902        -2.282195
 C         3.145266         0.169056        -1.358998
 O         3.810329        -1.017426        -1.700317
 C         1.698553         0.446826        -0.740423
 C         2.932852         0.745748         0.090212
 O         3.620649        -0.016889         0.976790
 C         2.650130         2.247396         0.094785
 H         0.105326         3.165770        -1.088491
 H         1.378418         3.908028        -1.873991
 H         0.374980         2.648764        -2.778900
 H         2.661197         1.165081        -3.219035
 H         3.787523         2.240513        -2.243597
 H         4.700008        -1.102298        -1.234179
 H         0.846115        -0.010376        -0.531135
 H         3.078984        -0.086858         1.815536
 H         1.911660         2.361476         0.808963
 H         3.473883         2.964205         0.252979
