19
Iteration:  2093charge 0 multiplicity 1
 C         0.852512         2.805519        -1.805235
 C         1.983881         1.956766        -1.255194
 C         3.129055         1.449629        -2.241569
 C         3.104025         0.209989        -1.392478
 O         3.685571        -0.962668        -1.661330
 C         1.772184         0.432551        -0.780654
 C         3.048044         0.735245         0.071124
 O         3.619194        -0.112330         0.974611
 C         2.696860         2.265136         0.035167
 H        -0.001806         3.106227        -1.145778
 H         1.322194         3.843309        -1.975889
 H         0.477182         2.473077        -2.816253
 H         2.772961         1.442044        -3.261561
 H         4.068654         2.029859        -2.103953
 H         4.295997        -1.260494        -0.913189
 H         0.885872        -0.260906        -0.465829
 H         3.060879        -0.234541         1.762802
 H         2.093125         2.576056         0.868136
 H         3.352528         3.148609         0.072135
