19
Iteration:  4319
 C         0.850017         2.872311        -1.876755
 C         1.930769         1.981193        -1.272469
 C         3.152138         1.464949        -2.172932
 C         3.130208         0.154174        -1.339474
 O         3.897418        -0.988600        -1.605370
 C         1.738714         0.448120        -0.881623
 C         2.988709         0.713109         0.066554
 O         3.534013        -0.048752         1.080939
 C         2.681246         2.213373         0.039907
 H         0.058730         2.960669        -1.073367
 H         1.131429         3.940294        -2.188878
 H         0.409164         2.395624        -2.751114
 H         2.802700         1.198916        -3.231460
 H         3.948338         2.260957        -2.269181
 H         3.805690        -1.376651        -2.498052
 H         0.964268        -0.268916        -0.597916
 H         2.953438        -0.066339         1.890410
 H         2.039892         2.508166         0.845308
 H         3.570788         2.803574         0.128559
