19
Iteration:   867
 C         0.808417         2.807900        -1.764721
 C         2.051877         1.962080        -1.390497
 C         3.106196         1.306346        -2.312376
 C         3.220813         0.182153        -1.306424
 O         3.855188        -0.822845        -1.795005
 C         1.703727         0.460904        -0.694767
 C         2.960094         0.756359         0.124960
 O         3.449009        -0.066971         1.113031
 C         2.819144         2.233829        -0.006986
 H         0.195427         2.763972        -0.823267
 H         1.083360         3.918209        -1.967067
 H         0.354255         2.286109        -2.607098
 H         2.516702         0.871814        -3.074954
 H         3.868839         2.020563        -2.665632
 H         3.794883        -1.528412        -1.051675
 H         0.897263        -0.097064        -0.432830
 H         2.846251        -0.173169         1.840216
 H         2.068881         2.643524         0.673608
 H         3.713266         2.949202        -0.160808
