19
Iteration:  4203charge 0 multiplicity 1
 C         0.819413         2.916733        -1.886443
 C         1.996278         1.951577        -1.278428
 C         3.049106         1.393272        -2.360259
 C         3.174657         0.264668        -1.329708
 O         3.872193        -0.923246        -1.563553
 C         1.765532         0.384761        -0.805618
 C         2.956189         0.694170         0.109936
 O         3.422827        -0.127164         1.129387
 C         2.800475         2.222842         0.030809
 H        -0.001615         2.990620        -1.108760
 H         1.131356         3.985832        -2.018980
 H         0.447416         2.646621        -2.926381
 H         2.687767         1.196579        -3.385770
 H         3.976624         2.159927        -2.469589
 H         3.539791        -1.456354        -2.326779
 H         0.943238        -0.299651        -0.786678
 H         4.148974         0.296630         1.680560
 H         2.109464         2.501083         0.847742
 H         3.796091         2.771172         0.304226
