19
Iteration:  2177charge 0 multiplicity 1
 C         0.817120         3.025003        -1.691352
 C         1.955226         1.901708        -1.285158
 C         3.037681         1.282503        -2.290721
 C         3.196144         0.220362        -1.329796
 O         3.885691        -0.913828        -1.697837
 C         1.749704         0.438542        -0.771575
 C         3.017375         0.732345         0.078697
 O         3.442959        -0.191297         1.039558
 C         2.806647         2.299461        -0.058680
 H         0.194602         3.152850        -0.825647
 H         1.213290         3.926467        -2.078467
 H         0.285503         2.666340        -2.594667
 H         2.536110         0.890026        -3.182432
 H         3.830961         1.982371        -2.596977
 H         4.489074        -1.067346        -0.991712
 H         0.856629        -0.296303        -0.518334
 H         2.847448        -0.162478         1.820645
 H         2.071033         2.832499         0.687020
 H         3.703208         2.879736        -0.391575
