19
Iteration:  3243
 C         0.904798         2.801982        -1.777873
 C         1.996076         1.916320        -1.189333
 C         3.106650         1.483932        -2.297984
 C         3.124174         0.228158        -1.443908
 O         3.784035        -0.991977        -1.618478
 C         1.675220         0.541718        -0.854692
 C         2.944650         0.699851         0.070078
 O         3.539540        -0.066893         0.998643
 C         2.777707         2.164584         0.052642
 H         0.021715         2.768696        -1.102998
 H         1.264331         3.818330        -1.931873
 H         0.402134         2.335565        -2.621637
 H         2.567579         1.375545        -3.313619
 H         4.096515         1.938365        -2.398607
 H         4.358943        -0.985547        -0.808530
 H         0.770431        -0.013430        -0.769406
 H         3.400991         0.441248         1.795079
 H         2.174844         2.385056         0.924718
 H         3.654131         2.761348         0.046532
