19
Iteration:  2241
 C         0.828598         2.864270        -1.766558
 C         1.946301         1.976252        -1.298400
 C         3.206080         1.422270        -2.227903
 C         3.119403         0.162546        -1.434561
 O         3.728132        -1.035112        -1.676304
 C         1.721844         0.488416        -0.763902
 C         2.989686         0.755226         0.069582
 O         3.615250        -0.050498         0.986541
 C         2.756283         2.226634         0.081092
 H         0.090600         3.083738        -0.959949
 H         1.218072         3.867442        -2.100760
 H         0.121843         2.334393        -2.440147
 H         2.980574         1.292372        -3.343778
 H         4.046158         2.151663        -2.026567
 H         4.348188        -1.326148        -1.020015
 H         0.817595        -0.247491        -0.752018
 H         2.923596        -0.098210         1.626830
 H         1.906146         2.482889         0.742861
 H         3.480682         3.005106         0.006587
