19
Iteration:  1461
 C         0.838965         2.839594        -1.775975
 C         1.999510         1.989112        -1.315259
 C         3.059317         1.416479        -2.356332
 C         3.164439         0.252334        -1.310560
 O         3.743556        -1.016533        -1.620996
 C         1.788451         0.456454        -0.778578
 C         2.956701         0.714678         0.090959
 O         3.539312        -0.012197         1.141808
 C         2.743891         2.225027         0.042935
 H         0.025554         2.882275        -1.002031
 H         1.150418         3.882685        -1.984999
 H         0.590808         2.318239        -2.696635
 H         2.440102         0.942290        -3.156077
 H         3.886652         2.081049        -2.666088
 H         3.937529        -1.017214        -2.549244
 H         1.035239        -0.278382        -0.847643
 H         4.316529        -0.507787         0.900651
 H         1.998065         2.567990         0.823964
 H         3.714759         2.794817         0.309321
