19
Iteration:    48charge 0 multiplicity 1
 C         0.783657         2.872471        -1.625807
 C         1.959095         1.934163        -1.373635
 C         3.187887         1.409757        -2.371460
 C         3.206892         0.289426        -1.341263
 O         3.733292        -0.967583        -1.697944
 C         1.771541         0.415544        -0.834367
 C         3.062266         0.654447         0.079470
 O         3.449736         0.059224         1.237950
 C         2.745661         2.190084        -0.065724
 H         0.257868         2.988297        -0.714643
 H         1.120164         3.873782        -1.850633
 H         0.125783         2.441190        -2.349640
 H         2.617176         0.938491        -3.200485
 H         4.022506         2.000420        -2.660860
 H         4.628082        -0.944227        -1.389349
 H         0.836942        -0.277660        -0.888714
 H         3.194429        -0.910948         1.060574
 H         2.137676         2.391163         0.783274
 H         3.765019         2.777444        -0.414187
