19
Iteration:  1440charge 0 multiplicity 1
 C         0.868144         2.858072        -1.862773
 C         1.816535         1.881562        -1.252550
 C         3.136359         1.479590        -2.198924
 C         3.090865         0.247210        -1.347774
 O         3.697265        -1.019419        -1.595642
 C         1.760512         0.373280        -0.808753
 C         2.951791         0.740097         0.066011
 O         3.653480         0.030110         1.116610
 C         2.770741         2.181328         0.023689
 H         0.100513         3.082684        -1.072936
 H         1.392205         3.841127        -1.841931
 H         0.559749         2.522939        -2.843714
 H         2.895478         1.390145        -3.210327
 H         3.917360         2.172971        -2.047579
 H         4.255432        -0.996976        -2.434876
 H         0.897621        -0.249313        -0.787397
 H         4.102194        -0.796922         0.739676
 H         2.179578         2.766125         0.755752
 H         3.580879         2.886765        -0.386933
