19
Iteration:  2970charge 0 multiplicity 1
 C         0.853594         2.949068        -1.662002
 C         1.961645         1.968379        -1.302373
 C         3.090149         1.428080        -2.328394
 C         3.074722         0.206644        -1.458459
 O         3.776609        -1.021514        -1.545246
 C         1.735961         0.434518        -0.801795
 C         3.021755         0.704754         0.003493
 O         3.403736        -0.011899         1.112284
 C         2.877268         2.170539        -0.026516
 H         0.175291         2.894067        -0.816065
 H         1.108133         3.969184        -1.891631
 H         0.383651         2.572361        -2.528232
 H         2.561816         1.220425        -3.227788
 H         4.112274         1.837481        -2.340858
 H         4.695362        -0.740110        -1.573649
 H         1.029727        -0.275912        -0.470390
 H         3.883754        -0.802069         0.810825
 H         2.289067         2.674985         0.785076
 H         3.723492         2.767576        -0.285563
