19
Iteration:  2268
 C         0.917712         2.876603        -1.757070
 C         1.932992         1.922038        -1.289941
 C         3.144712         1.474727        -2.283431
 C         3.150618         0.263233        -1.387406
 O         3.644548        -0.990284        -1.639555
 C         1.749434         0.424181        -0.893572
 C         2.931988         0.715461         0.177386
 O         3.664304        -0.106930         1.063848
 C         2.710193         2.219669         0.039540
 H         0.159434         2.821905        -0.935951
 H         1.297583         3.894653        -1.872288
 H         0.492588         2.605801        -2.834388
 H         2.670987         1.124120        -3.198032
 H         3.897038         2.201283        -2.603307
 H         4.532211        -1.123585        -1.344781
 H         1.074554        -0.402893        -0.978138
 H         3.254968         0.037460         1.906199
 H         1.911276         2.646860         0.704171
 H         3.554899         2.920813        -0.279309
