19
Iteration:  4740
 C         0.763472         2.843937        -1.728170
 C         2.015785         1.979528        -1.306505
 C         3.134465         1.436820        -2.333069
 C         3.197182         0.258922        -1.386949
 O         3.903725        -0.932344        -1.687765
 C         1.801441         0.424259        -0.862633
 C         2.962633         0.640355         0.082418
 O         3.430323        -0.039137         1.179989
 C         2.796915         2.199243         0.020493
 H         0.091968         3.109480        -0.893038
 H         1.007816         3.793660        -2.252334
 H         0.257818         2.254106        -2.543971
 H         2.730936         1.078297        -3.306947
 H         3.862583         2.219195        -2.674550
 H         3.499910        -1.607533        -1.173936
 H         0.837374        -0.141081        -0.899724
 H         2.829241        -0.263759         1.870847
 H         2.129057         2.643545         0.748400
 H         3.599224         2.989394         0.040157
