19
Iteration:  4875charge 0 multiplicity 1
 C         0.816294         2.709968        -1.716456
 C         1.991867         1.974141        -1.302504
 C         3.171093         1.391804        -2.348989
 C         3.216697         0.265524        -1.416869
 O         3.720740        -0.960491        -1.724084
 C         1.826899         0.424310        -0.858757
 C         2.963737         0.747882         0.044775
 O         3.446660        -0.033633         1.217354
 C         2.788019         2.283511         0.077142
 H         0.096586         2.693888        -0.851949
 H         1.102350         3.791579        -1.996930
 H         0.184248         2.286057        -2.492927
 H         2.667752         0.989802        -3.311487
 H         4.095789         1.978484        -2.675051
 H         4.689497        -1.037826        -1.568572
 H         0.851032        -0.088686        -1.121911
 H         2.893784         0.159403         2.014662
 H         2.003720         2.583696         0.805808
 H         3.682495         2.910613         0.182960
