19
Iteration:  1347
 C         0.808466         2.817480        -1.633292
 C         1.980586         1.936618        -1.219758
 C         3.063959         1.379606        -2.341665
 C         3.166047         0.160428        -1.416460
 O         3.891693        -1.076716        -1.687612
 C         1.746269         0.418510        -0.826169
 C         2.960096         0.720680        -0.023443
 O         3.358383         0.100562         1.186724
 C         2.847884         2.347460        -0.039588
 H         0.338583         2.977538        -0.688309
 H         0.895872         3.889635        -1.842478
 H         0.047364         2.369676        -2.311030
 H         2.720979         1.345714        -3.462291
 H         4.012309         1.979154        -2.442476
 H         4.768135        -0.759398        -1.844747
 H         0.787351        -0.245379        -0.528215
 H         3.491169        -0.849327         1.096188
 H         2.451527         2.752664         0.927492
 H         3.840314         2.716390        -0.265876
