19
Iteration:  4946
 C         0.960418         2.861792        -1.762195
 C         1.999021         1.970651        -1.276422
 C         2.994668         1.349615        -2.331259
 C         3.175697         0.271777        -1.336802
 O         3.979420        -0.889680        -1.540720
 C         1.592482         0.396396        -0.745035
 C         2.778544         0.666080         0.044923
 O         3.607533        -0.119349         0.910701
 C         2.707903         2.225280         0.030330
 H         0.173530         3.250323        -1.079386
 H         1.506972         3.687461        -2.167207
 H         0.347746         2.632748        -2.692888
 H         2.334615         1.226879        -3.217323
 H         3.961065         1.926773        -2.645469
 H         4.510982        -1.084095        -0.773535
 H         0.599615        -0.128461        -0.713309
 H         3.358816         0.030115         1.866547
 H         1.994880         2.690337         0.691069
 H         3.562306         2.933425        -0.057070
