19
Iteration:  1828
 C         0.876633         2.938261        -1.744580
 C         1.932239         1.954288        -1.329356
 C         2.966367         1.355007        -2.389620
 C         3.169672         0.308545        -1.367429
 O         3.901320        -0.825403        -1.669385
 C         1.742092         0.451315        -0.784943
 C         2.941501         0.653306         0.112813
 O         3.526422        -0.196228         1.117722
 C         2.810242         2.223382         0.012437
 H         0.232718         3.053468        -0.881000
 H         1.484863         3.730414        -2.125538
 H         0.507563         2.494362        -2.705850
 H         2.245472         0.820243        -2.994008
 H         3.862155         1.894504        -2.878337
 H         4.033261        -1.307877        -0.861110
 H         0.880963        -0.134534        -0.608358
 H         2.823597        -0.444778         1.750775
 H         2.342313         2.801942         0.803038
 H         3.723990         2.759620        -0.170945
