19
Iteration:  2774
 C         0.874702         2.894560        -1.727455
 C         1.970081         1.949841        -1.325986
 C         3.122189         1.352056        -2.276643
 C         3.157320         0.218785        -1.327315
 O         3.716835        -0.937844        -1.695874
 C         1.740633         0.419199        -0.802522
 C         2.881302         0.788881         0.106199
 O         3.613452        -0.073695         0.980037
 C         2.767272         2.211558         0.009373
 H         0.056497         2.981456        -0.939728
 H         1.273949         3.933946        -1.988835
 H         0.341913         2.472823        -2.576651
 H         2.730570         1.064581        -3.271991
 H         4.089459         1.912578        -2.312601
 H         3.938233        -1.421550        -0.882108
 H         0.922614        -0.322285        -0.630566
 H         3.277733        -0.086687         1.902403
 H         2.354377         2.778967         0.840807
 H         3.807716         2.779910         0.050280
