19
Iteration:  3589charge 0 multiplicity 1
 C         0.959871         2.957797        -1.742684
 C         1.959121         1.914525        -1.324537
 C         3.007316         1.350628        -2.379113
 C         3.111449         0.167022        -1.394771
 O         3.940057        -0.943355        -1.652771
 C         1.642562         0.393801        -0.826560
 C         2.933548         0.735819         0.082388
 O         3.484719        -0.036024         1.145275
 C         2.758088         2.179134         0.039478
 H         0.134401         2.967484        -0.925953
 H         1.361922         3.971234        -1.778342
 H         0.399689         2.561050        -2.628712
 H         2.578363         1.428371        -3.395025
 H         3.747092         2.238381        -2.479477
 H         4.046262        -1.310823        -0.762955
 H         0.615418        -0.018603        -0.691958
 H         4.433055        -0.108735         1.092379
 H         2.036776         2.668020         0.837755
 H         3.626881         2.809273         0.016724
