19
Iteration:   384charge 0 multiplicity 1
 C         0.828041         2.840742        -1.632483
 C         1.915255         1.948603        -1.255954
 C         3.059709         1.460382        -2.285508
 C         3.162510         0.205570        -1.467856
 O         3.784638        -1.040344        -1.599410
 C         1.837899         0.401150        -0.847813
 C         3.111230         0.697657        -0.009301
 O         3.440656        -0.000471         1.096198
 C         2.770741         2.256935        -0.031959
 H         0.205401         3.054970        -0.813369
 H         1.307284         3.759954        -1.963700
 H         0.232463         2.512703        -2.451777
 H         2.786593         1.465384        -3.316500
 H         3.969791         2.096667        -2.115766
 H         4.744533        -0.931241        -1.266339
 H         1.041313        -0.283135        -0.627644
 H         2.610384        -0.554973         1.154447
 H         2.131398         2.565348         0.891355
 H         3.382293         3.156833        -0.452133
