19
Iteration:  3126charge 0 multiplicity 1
 C         0.905585         2.902384        -1.658344
 C         1.916139         1.923700        -1.292696
 C         3.097380         1.385839        -2.320792
 C         3.098572         0.215838        -1.387906
 O         3.892428        -0.877484        -1.623137
 C         1.719886         0.379009        -0.768377
 C         2.862350         0.742419         0.063155
 O         3.491536        -0.169208         1.000072
 C         2.833073         2.247301        -0.075558
 H         0.142511         2.970887        -0.921542
 H         1.417478         3.903084        -1.826343
 H         0.304691         2.581080        -2.543231
 H         2.877335         1.101794        -3.368767
 H         4.114321         1.933603        -2.302196
 H         4.061774        -1.254158        -0.730316
 H         0.737654        -0.116559        -0.711699
 H         3.313413         0.311558         1.811338
 H         2.115931         2.895525         0.567036
 H         3.815344         2.782362        -0.109941
