19
Iteration:  4980charge 0 multiplicity 1
 C         0.784224         2.978201        -1.798706
 C         1.930362         1.974254        -1.319090
 C         3.045065         1.471958        -2.346630
 C         3.214902         0.209809        -1.439583
 O         3.859295        -0.940357        -1.591450
 C         1.789662         0.298308        -0.777073
 C         2.985348         0.701032         0.034302
 O         3.452313        -0.094353         1.155019
 C         2.734112         2.161269         0.006313
 H         0.129469         3.226754        -0.961481
 H         1.315158         3.889447        -1.954951
 H         0.373483         2.480843        -2.730383
 H         2.587232         1.356681        -3.354992
 H         4.018581         2.084899        -2.463333
 H         4.198394        -1.249924        -0.743915
 H         0.978172        -0.494181        -0.572330
 H         4.265724         0.384147         1.384604
 H         2.011972         2.341190         0.781267
 H         3.566766         2.918866        -0.100031
