19
Iteration:  3026charge 0 multiplicity 1
 C         0.882058         2.890118        -1.760878
 C         1.998215         1.897712        -1.267678
 C         3.024815         1.465719        -2.288738
 C         3.140501         0.227004        -1.431274
 O         3.700847        -1.024407        -1.743777
 C         1.774333         0.376597        -0.847107
 C         3.054044         0.681646         0.022015
 O         3.458738         0.121401         1.251866
 C         2.898261         2.150327         0.091887
 H         0.108361         3.151779        -1.062921
 H         1.290985         3.875675        -2.074900
 H         0.251263         2.397292        -2.509048
 H         2.603129         1.436561        -3.256588
 H         3.932000         2.032118        -2.594880
 H         4.662087        -1.018094        -1.718656
 H         0.835315        -0.130161        -0.751899
 H         2.983976        -0.760021         1.320155
 H         2.065848         2.246808         0.828138
 H         3.686663         2.875819         0.094697
