19
Iteration:  1674charge 0 multiplicity 1
 C         0.903781         2.882876        -1.595556
 C         1.959757         1.963079        -1.308991
 C         2.966765         1.371746        -2.368864
 C         3.296957         0.284602        -1.367130
 O         3.853918        -0.947228        -1.725151
 C         1.714878         0.423637        -0.790636
 C         2.905266         0.674945         0.102035
 O         3.446199        -0.016321         1.167404
 C         2.821847         2.240832        -0.072005
 H         0.272088         3.230987        -0.752018
 H         1.273126         3.819512        -2.066897
 H         0.256387         2.285359        -2.343158
 H         2.689348         0.863160        -3.264530
 H         3.736676         2.140351        -2.736685
 H         4.260105        -1.353149        -0.932123
 H         1.026117        -0.447059        -0.988403
 H         2.953319        -0.839013         1.118683
 H         2.255887         2.918978         0.663201
 H         3.884574         2.631359        -0.339670
