19
Iteration:  1315charge 0 multiplicity 1
 C         0.828324         2.782774        -1.700917
 C         2.012611         1.923585        -1.350706
 C         3.100342         1.396930        -2.461696
 C         3.231469         0.270862        -1.382768
 O         3.681569        -0.961438        -1.729063
 C         1.804612         0.440496        -0.785966
 C         2.942428         0.695813         0.054068
 O         3.480951         0.076342         1.319621
 C         2.781781         2.210542         0.030231
 H         0.170627         2.678911        -0.855838
 H         1.076637         3.829531        -1.908075
 H         0.207263         2.380318        -2.551998
 H         2.584622         0.978618        -3.330297
 H         3.930098         2.015539        -2.595974
 H         4.687922        -0.889467        -1.672676
 H         0.832439        -0.195199        -0.714120
 H         3.833985        -0.837370         1.103202
 H         2.130262         2.688238         0.800626
 H         3.761210         2.794500         0.072223
