19
Iteration:  4481charge 0 multiplicity 1
 C         0.913634         2.810629        -1.842444
 C         1.977644         1.928116        -1.354368
 C         3.140460         1.464454        -2.187009
 C         3.148612         0.215586        -1.342364
 O         3.899044        -0.931555        -1.586452
 C         1.703342         0.397906        -0.845596
 C         2.937340         0.751111         0.106986
 O         3.508263        -0.034015         1.115246
 C         2.603837         2.199558         0.065320
 H         0.079406         2.914651        -1.153238
 H         1.423585         3.798728        -2.048339
 H         0.552792         2.455993        -2.823476
 H         2.632907         1.366186        -3.230856
 H         4.124204         2.075050        -2.377377
 H         3.569033        -1.374052        -2.349701
 H         0.773801        -0.137775        -0.750614
 H         4.262445        -0.432761         0.655388
 H         1.808314         2.490125         0.866731
 H         3.400146         3.012467         0.176243
