19
Iteration:  1746
 C         0.883920         2.864508        -1.762028
 C         1.904619         1.914310        -1.315647
 C         3.138342         1.427814        -2.287735
 C         3.266557         0.300067        -1.308983
 O         3.611253        -0.962860        -1.656421
 C         1.774841         0.407897        -0.910392
 C         2.942476         0.710625         0.174605
 O         3.643692        -0.111969         1.041985
 C         2.709669         2.250510         0.037753
 H        -0.012502         3.050752        -1.127571
 H         1.126707         3.899585        -2.040351
 H         0.433638         2.380950        -2.601907
 H         2.756221         1.278197        -3.313970
 H         3.976487         2.035726        -2.482286
 H         4.461797        -1.193785        -1.283545
 H         1.065324        -0.360572        -0.889911
 H         3.360838        -0.011518         1.933624
 H         2.027975         2.583797         0.817613
 H         3.518361         2.948442        -0.095699
