19
Iteration:  1998
 C         0.813539         2.983693        -1.641100
 C         2.000230         1.930003        -1.252767
 C         2.944502         1.444243        -2.385175
 C         3.143635         0.153377        -1.439182
 O         3.932102        -0.997750        -1.601207
 C         1.761659         0.445026        -0.936840
 C         2.988489         0.633106         0.003556
 O         3.489829         0.004364         1.092066
 C         2.809211         2.152683         0.029824
 H         0.279435         3.191138        -0.729377
 H         1.337472         3.912895        -1.874346
 H         0.246186         2.638622        -2.436699
 H         2.463359         1.165565        -3.364701
 H         3.857109         1.999040        -2.539594
 H         4.350895        -1.433042        -0.887089
 H         0.959677        -0.283401        -0.725084
 H         2.793893         0.267190         1.781583
 H         2.158095         2.524347         0.812315
 H         3.514671         2.928423         0.177780
