19
Iteration:  3971
 C         0.862727         2.728458        -1.722045
 C         2.077848         1.934950        -1.294689
 C         3.088965         1.419667        -2.314988
 C         3.109541         0.287022        -1.441344
 O         3.792367        -0.919968        -1.701063
 C         1.756276         0.425207        -0.780176
 C         2.957061         0.704482        -0.022466
 O         3.394231        -0.096642         1.211390
 C         2.825047         2.262123        -0.002579
 H         0.160540         3.110038        -0.895093
 H         1.200687         3.665600        -2.244716
 H         0.351859         2.189325        -2.572545
 H         2.538052         1.293761        -3.198078
 H         4.048054         1.883060        -2.570661
 H         4.185351        -1.215390        -0.825590
 H         0.753923         0.041017        -0.681060
 H         3.900095         0.646500         1.682312
 H         2.244224         2.661495         0.778237
 H         3.737286         2.768327        -0.084177
