19
Iteration:  3878charge 0 multiplicity 1
 C         0.886647         2.888671        -1.831016
 C         1.913822         1.983798        -1.257396
 C         3.021555         1.327190        -2.201206
 C         3.110430         0.154736        -1.347818
 O         3.865811        -0.924794        -1.690212
 C         1.693654         0.480465        -0.888941
 C         3.030503         0.749760         0.041702
 O         3.538657        -0.077193         1.130422
 C         2.688180         2.194921         0.009700
 H         0.115527         3.114997        -1.158730
 H         1.357887         3.901027        -1.905816
 H         0.664613         2.612000        -2.855168
 H         2.727802         1.043549        -3.272698
 H         3.984740         1.849928        -2.391256
 H         3.783450        -1.462454        -0.893485
 H         0.865493        -0.025018        -0.481924
 H         4.460845         0.201931         1.259439
 H         2.030115         2.651556         0.808929
 H         3.635437         2.713984         0.161286
