19
Iteration:  3823
 C         0.844208         2.792354        -1.787465
 C         1.932722         2.007657        -1.283262
 C         3.110880         1.441176        -2.309245
 C         3.212591         0.235088        -1.391237
 O         3.770677        -1.012069        -1.708551
 C         1.786972         0.526770        -0.846099
 C         3.110236         0.728595        -0.008313
 O         3.373251        -0.045077         1.232818
 C         2.777603         2.221887         0.075003
 H         0.147172         2.926926        -1.005070
 H         1.096342         3.683338        -2.407360
 H         0.198843         2.244446        -2.481534
 H         2.552124         0.979739        -3.172542
 H         3.849158         2.203350        -2.558372
 H         3.913811        -1.557977        -0.951548
 H         0.822370        -0.011582        -0.895812
 H         4.329448        -0.126769         1.262976
 H         2.112744         2.226171         0.931411
 H         3.610596         2.836190         0.115511
