19
Iteration:  3827charge 0 multiplicity 1
 C         0.862712         2.787925        -1.799544
 C         1.945544         1.963596        -1.261759
 C         3.110792         1.464746        -2.294194
 C         3.199203         0.205352        -1.363363
 O         3.747625        -0.998877        -1.724269
 C         1.778007         0.474469        -0.904805
 C         3.089387         0.742641         0.003961
 O         3.382019        -0.045641         1.239829
 C         2.800428         2.255636         0.105318
 H         0.076171         2.901773        -0.938971
 H         1.123108         3.694231        -2.484020
 H         0.203190         2.298617        -2.605168
 H         2.504242         1.059045        -3.157670
 H         3.880200         2.215051        -2.561912
 H         3.924943        -1.564214        -0.913027
 H         0.856037        -0.033611        -0.846370
 H         4.388787        -0.045641         1.092094
 H         2.118689         2.259100         0.959166
 H         3.654553         3.124014         0.000025
