19
Iteration:   973charge 0 multiplicity 1
 C         0.782730         2.761533        -1.843612
 C         1.963201         1.978867        -1.212947
 C         3.147202         1.458212        -2.269350
 C         3.087995         0.261405        -1.402599
 O         3.726158        -1.024928        -1.578307
 C         1.757382         0.409989        -0.860705
 C         3.019878         0.742884         0.052592
 O         3.580562         0.038813         1.067211
 C         2.774077         2.198698         0.078362
 H        -0.116617         2.884179        -1.198845
 H         1.158860         3.818394        -1.937701
 H         0.416722         2.477452        -2.788359
 H         2.787952         1.281731        -3.348720
 H         4.134284         1.989811        -2.405488
 H         4.710972        -1.025179        -1.455998
 H         0.910360        -0.117972        -0.812915
 H         2.987728        -0.630732         1.377412
 H         2.273542         2.585506         0.971077
 H         3.677345         2.704520        -0.102044
