19
Iteration:  1377charge 0 multiplicity 1
 C         0.866456         2.865524        -1.735953
 C         1.929053         1.903481        -1.327133
 C         2.957116         1.428412        -2.367284
 C         3.207216         0.298054        -1.348903
 O         3.744033        -0.954649        -1.563131
 C         1.794375         0.439045        -0.824351
 C         3.091768         0.674168         0.099047
 O         3.485700        -0.065169         1.173849
 C         2.767219         2.262067        -0.080389
 H         0.318194         3.036165        -0.775625
 H         1.214788         3.889843        -2.003580
 H         0.112703         2.533499        -2.420314
 H         2.483731         0.981798        -3.306082
 H         3.744282         2.216225        -2.694281
 H         4.733335        -0.821576        -1.410783
 H         1.070379        -0.390570        -1.006598
 H         3.677023        -1.019719         0.918358
 H         2.169700         2.579232         0.770922
 H         3.676966         2.792800        -0.197331
