19
Iteration:   459charge 0 multiplicity 1
 C         0.872004         2.911317        -1.803851
 C         1.840296         1.953555        -1.223518
 C         3.088001         1.451253        -2.230318
 C         3.155119         0.192882        -1.465290
 O         3.828531        -1.027601        -1.750203
 C         1.793234         0.352848        -0.740900
 C         2.942415         0.729478         0.054260
 O         3.588491        -0.028868         1.048095
 C         2.711484         2.209429         0.040512
 H        -0.076954         3.020221        -1.310762
 H         1.288644         3.876103        -2.145258
 H         0.537526         2.498442        -2.780544
 H         2.715708         1.605550        -3.261715
 H         4.145825         2.092037        -2.007077
 H         4.134241        -1.373350        -0.933563
 H         0.943436        -0.127633        -0.277289
 H         3.288888         0.339456         1.867656
 H         2.052674         2.473877         0.927966
 H         3.708340         2.808766         0.188675
