19
Iteration:  4699charge 0 multiplicity 1
 C         0.836156         2.763909        -1.761002
 C         1.996286         1.960288        -1.292622
 C         3.165955         1.500085        -2.282227
 C         3.170788         0.214825        -1.373223
 O         3.767969        -0.940320        -1.761936
 C         1.810384         0.403521        -0.803131
 C         3.041999         0.772339         0.076753
 O         3.370320        -0.093327         1.192030
 C         2.748638         2.169246        -0.035888
 H         0.027898         2.848034        -1.039237
 H         0.991843         3.903281        -1.838119
 H         0.483867         2.395240        -2.748144
 H         2.894218         1.318059        -3.396422
 H         4.200850         1.936003        -2.268355
 H         4.634863        -1.021654        -1.261740
 H         0.906685        -0.108046        -0.537833
 H         3.105370         0.571087         1.889321
 H         1.956016         2.398558         0.699579
 H         3.580162         2.807837        -0.111224
