19
Iteration:  3627
 C         0.828767         2.896495        -1.740178
 C         1.947687         1.876820        -1.317606
 C         2.984082         1.439688        -2.335567
 C         3.234559         0.244914        -1.349841
 O         3.904302        -0.974268        -1.684296
 C         1.789846         0.418413        -0.760562
 C         3.014120         0.726537         0.039346
 O         3.347013        -0.129882         1.124812
 C         2.809491         2.315429         0.012403
 H         0.257456         3.232247        -0.903193
 H         1.159232         3.888185        -2.208551
 H         0.182565         2.465990        -2.489524
 H         2.742646         0.967160        -3.292200
 H         3.919325         1.944594        -2.472289
 H         3.561973        -1.665648        -1.131434
 H         0.823909         0.010260        -0.588494
 H         4.215385         0.002816         1.514429
 H         2.174169         2.894262         0.618806
 H         3.877294         2.829926        -0.055548
