19
Iteration:  3682
 C         0.874066         2.765075        -1.813263
 C         1.994279         1.965925        -1.249023
 C         3.111463         1.523268        -2.272841
 C         3.168454         0.148812        -1.375745
 O         3.791879        -1.014081        -1.747447
 C         1.720059         0.516738        -0.836383
 C         2.955990         0.693400         0.050572
 O         3.437594         0.019717         1.187329
 C         2.786142         2.208257         0.051611
 H         0.080094         2.804780        -1.071847
 H         1.059647         3.821462        -2.251813
 H         0.319725         2.123125        -2.504800
 H         2.688345         1.538087        -3.308300
 H         4.071648         2.025901        -2.245629
 H         3.847671        -1.698828        -1.045175
 H         0.813249        -0.056277        -0.570151
 H         4.422686         0.054987         1.127005
 H         2.125778         2.541360         0.834832
 H         3.809154         2.826231        -0.044691
