19
Iteration:  2247charge 0 multiplicity 1
 C         0.795371         2.876822        -1.748690
 C         1.974718         1.963251        -1.335708
 C         3.166774         1.429140        -2.204833
 C         3.160624         0.197903        -1.344888
 O         3.687526        -1.015580        -1.671370
 C         1.742277         0.447915        -0.809015
 C         2.970400         0.740847         0.072789
 O         3.648194        -0.077141         0.988674
 C         2.705712         2.246075         0.021811
 H         0.288820         3.038414        -0.782233
 H         1.199282         3.797108        -2.186726
 H         0.307955         2.514852        -2.690316
 H         3.095263         1.311386        -3.270634
 H         4.033482         2.062703        -2.058510
 H         4.450068        -1.395937        -1.173294
 H         0.800356        -0.012692        -0.630035
 H         3.003296        -0.130229         1.753837
 H         1.897902         2.449597         0.739745
 H         3.602083         2.947902         0.012980
