19
Iteration:  4882charge 0 multiplicity 1
 C         0.780650         2.727171        -1.742747
 C         2.065806         1.954187        -1.284926
 C         3.056887         1.428088        -2.338191
 C         3.254160         0.261141        -1.386602
 O         3.739468        -0.985442        -1.719686
 C         1.841899         0.431672        -0.904094
 C         2.954118         0.743887         0.090457
 O         3.440896         0.005816         1.163460
 C         2.783709         2.255798         0.072478
 H         0.246904         2.917039        -0.839267
 H         1.150753         3.698292        -1.966305
 H         0.297306         2.287918        -2.636979
 H         2.556635         1.247762        -3.235331
 H         3.956614         1.899880        -2.637173
 H         4.553000        -1.149589        -1.254998
 H         1.085941        -0.362513        -0.959788
 H         2.809573        -0.072269         1.871708
 H         2.086107         2.661046         0.808849
 H         3.764031         2.852070         0.285527
