19
Iteration:  2936charge 0 multiplicity 1
 C         0.924925         2.903443        -1.769895
 C         1.999729         1.957003        -1.284186
 C         3.054504         1.412051        -2.277281
 C         3.115646         0.268713        -1.331921
 O         3.727993        -1.025866        -1.514809
 C         1.685305         0.501551        -0.857379
 C         2.943969         0.731403         0.101247
 O         3.570025        -0.064901         1.030408
 C         2.785457         2.175847         0.048627
 H         0.112277         2.927989        -0.991118
 H         1.233534         3.886537        -1.969529
 H         0.395994         2.434977        -2.578559
 H         2.518828         1.224867        -3.229300
 H         3.964922         2.000861        -2.668645
 H         4.520030        -0.926303        -2.036691
 H         0.850730        -0.285831        -0.843085
 H         3.963027        -0.802178         0.449683
 H         2.109286         2.750739         0.801301
 H         3.683896         2.767756        -0.101670
