19
Iteration:  1907charge 0 multiplicity 1
 C         0.863990         2.809289        -1.770339
 C         2.014411         1.975143        -1.256080
 C         3.083292         1.464629        -2.322631
 C         3.225724         0.303316        -1.354107
 O         3.688833        -1.010274        -1.672652
 C         1.787891         0.453336        -0.875242
 C         2.910695         0.662269         0.071360
 O         3.622257        -0.021375         1.035772
 C         2.724442         2.186528         0.112754
 H         0.156741         3.049628        -0.923186
 H         1.214346         3.799110        -1.965777
 H         0.355117         2.208597        -2.509046
 H         2.658396         1.311534        -3.322780
 H         3.925228         2.197683        -2.598565
 H         3.960111        -1.412053        -0.842142
 H         0.887301        -0.118868        -1.062153
 H         3.126382        -0.230410         1.838770
 H         2.033669         2.589551         0.892154
 H         3.625295         2.784237         0.025460
