19
Iteration:  1146
 C         0.829133         2.762951        -1.795406
 C         1.915090         1.884122        -1.287162
 C         3.108336         1.519304        -2.274808
 C         3.142571         0.257396        -1.420575
 O         3.722996        -1.030459        -1.759005
 C         1.805388         0.374820        -0.845778
 C         2.986026         0.719058         0.070102
 O         3.542706         0.122653         1.280600
 C         2.855777         2.194810        -0.024897
 H        -0.021991         2.742620        -1.052333
 H         1.013642         3.842669        -1.899141
 H         0.385280         2.443790        -2.735962
 H         2.708270         1.447034        -3.337434
 H         3.887269         2.201060        -2.054672
 H         4.353835        -1.233942        -1.004602
 H         0.771430        -0.137439        -0.742842
 H         3.175475        -0.784003         1.388207
 H         2.165775         2.562816         0.849638
 H         3.844220         2.821276        -0.198247
