19
Iteration:  3396charge 0 multiplicity 1
 C         0.810589         2.837557        -1.902932
 C         1.993322         1.974071        -1.218154
 C         3.139618         1.523970        -2.279692
 C         3.132757         0.200466        -1.404734
 O         3.830108        -1.030907        -1.718733
 C         1.733978         0.438175        -0.800492
 C         2.949401         0.749848         0.065379
 O         3.454205        -0.044443         1.183344
 C         2.821305         2.184160         0.061728
 H         0.132959         2.851745        -0.979096
 H         1.020194         3.917021        -1.986976
 H         0.366743         2.414551        -2.826221
 H         2.638166         1.401289        -3.331904
 H         4.018914         2.180875        -2.383347
 H         3.767397        -1.549040        -0.863669
 H         0.811915        -0.119322        -0.510135
 H         4.335815        -0.245474         0.818852
 H         2.089018         2.264564         0.899372
 H         3.537728         3.116152         0.093108
