19
Iteration:  4207
 C         0.804408         2.889469        -1.858289
 C         1.982275         1.941693        -1.311255
 C         3.049840         1.407410        -2.363709
 C         3.191716         0.267083        -1.331497
 O         3.883590        -0.936799        -1.558060
 C         1.761288         0.370837        -0.800526
 C         2.922387         0.712935         0.116578
 O         3.406098        -0.114047         1.125495
 C         2.835054         2.238381         0.042915
 H        -0.008989         3.095949        -1.148348
 H         1.283552         3.950374        -1.921048
 H         0.508318         2.584680        -2.903123
 H         2.580750         1.295845        -3.361884
 H         4.064604         1.974059        -2.388242
 H         3.518014        -1.258682        -2.391234
 H         0.967757        -0.358129        -0.910815
 H         4.139485         0.276817         1.570250
 H         2.222509         2.520193         0.921438
 H         3.762681         2.720818         0.151169
