19
Iteration:  4166
 C         0.949821         2.874434        -1.813186
 C         1.924567         1.886008        -1.252849
 C         3.150688         1.432243        -2.296047
 C         3.162104         0.171707        -1.458498
 O         3.863670        -0.980480        -1.636059
 C         1.804323         0.353417        -0.793815
 C         2.966007         0.779090         0.074220
 O         3.391713        -0.011470         1.058055
 C         2.688016         2.274400         0.144204
 H         0.166493         3.024020        -1.088283
 H         1.368982         3.842633        -1.911912
 H         0.517151         2.454880        -2.674109
 H         2.798756         1.127855        -3.306195
 H         3.809984         2.213756        -2.231161
 H         3.231456        -1.745188        -1.781394
 H         0.901828        -0.314911        -0.697816
 H         4.285367         0.280285         1.393267
 H         1.826442         2.568728         0.780536
 H         3.502330         3.088365         0.135328
