19
Iteration:   911charge 0 multiplicity 1
 C         0.890283         2.919478        -1.804122
 C         1.874972         1.971197        -1.258729
 C         2.957723         1.515555        -2.276612
 C         3.190704         0.199838        -1.366215
 O         3.921730        -1.037093        -1.662441
 C         1.760462         0.341703        -0.802453
 C         2.977015         0.683787        -0.000739
 O         3.520572         0.016491         1.067484
 C         2.757164         2.161755         0.012965
 H         0.245693         3.301778        -0.948429
 H         1.367779         3.937651        -2.095643
 H         0.298995         2.432939        -2.612064
 H         2.508516         1.141441        -3.190154
 H         3.904674         2.124564        -2.382636
 H         4.088378        -1.374424        -0.703801
 H         0.924408        -0.324725        -0.542235
 H         2.994977         0.361744         1.773884
 H         2.075215         2.428565         0.851115
 H         3.859657         2.703382        -0.071879
