19
Iteration:  3414
 C         0.838549         2.865221        -1.798569
 C         1.928573         1.948699        -1.287369
 C         3.088062         1.429950        -2.223713
 C         3.139258         0.171423        -1.336057
 O         3.809874        -0.892745        -1.699734
 C         1.765790         0.404173        -0.815536
 C         2.981742         0.702077         0.081851
 O         3.465675        -0.051517         1.100500
 C         2.734404         2.249654        -0.005478
 H         0.062105         2.973145        -0.979108
 H         1.400317         3.788508        -1.899832
 H         0.768592         2.539890        -2.821761
 H         2.958716         0.982328        -3.173334
 H         3.975805         2.059676        -2.169942
 H         3.716143        -1.574421        -0.973366
 H         0.897640        -0.165542        -0.878988
 H         4.422073        -0.212886         1.176436
 H         2.235478         2.730280         0.814335
 H         3.667426         2.663689        -0.271442
