19
Iteration:  2508charge 0 multiplicity 1
 C         0.881100         2.870662        -1.635480
 C         1.993363         1.934149        -1.241953
 C         2.999269         1.462389        -2.329934
 C         3.190374         0.209770        -1.443267
 O         3.783501        -1.030298        -1.590810
 C         1.754044         0.466207        -0.843086
 C         2.963902         0.698666        -0.026709
 O         3.459100         0.012053         1.082996
 C         2.897542         2.188109        -0.017659
 H         0.139316         2.901948        -0.767631
 H         0.979528         3.917775        -1.965639
 H         0.398593         2.289249        -2.544615
 H         2.542198         1.236629        -3.259748
 H         3.793706         2.181760        -2.707124
 H         4.513529        -1.056272        -0.978920
 H         0.829066         0.028823        -0.693947
 H         2.756806        -0.464286         1.535098
 H         2.312477         2.530256         0.856874
 H         3.940519         2.692997        -0.276756
