19
Iteration:  4693
 C         0.841300         2.821446        -1.781145
 C         1.955040         1.969981        -1.335238
 C         3.129727         1.523868        -2.237491
 C         3.157055         0.206451        -1.410980
 O         3.776780        -0.956531        -1.707020
 C         1.825114         0.431808        -0.810736
 C         3.036512         0.686337         0.011531
 O         3.402691        -0.084020         1.223744
 C         2.736894         2.153001        -0.039614
 H        -0.023304         2.674079        -1.077643
 H         1.039558         3.855781        -1.945388
 H         0.559340         2.422157        -2.748639
 H         2.873867         1.460882        -3.254390
 H         4.145042         1.921753        -2.309056
 H         4.735445        -0.964903        -1.435194
 H         0.980907        -0.188600        -0.515367
 H         3.124574         0.398409         2.046929
 H         2.133336         2.559048         0.816970
 H         3.614658         2.915948         0.011387
