19
Iteration:  2932
 C         0.908286         2.911833        -1.778726
 C         2.014957         1.966160        -1.273341
 C         3.099579         1.374857        -2.297319
 C         3.130085         0.259757        -1.297000
 O         3.694063        -0.981828        -1.522818
 C         1.691338         0.466610        -0.845665
 C         2.951749         0.718302         0.107797
 O         3.582579        -0.080038         1.031291
 C         2.757299         2.203474         0.036587
 H         0.132859         3.026624        -0.973768
 H         1.192676         3.986202        -2.009892
 H         0.353702         2.471834        -2.685831
 H         2.529430         1.283780        -3.246165
 H         3.829429         1.976478        -2.712027
 H         4.514518        -0.948447        -2.080113
 H         0.909966        -0.298676        -0.814688
 H         3.904340        -0.784026         0.468111
 H         2.051130         2.571973         0.837792
 H         3.752356         2.819018        -0.113444
