19
Iteration:   154charge 0 multiplicity 1
 C         0.793960         2.910881        -1.699556
 C         1.920436         1.894984        -1.367721
 C         3.131432         1.429424        -2.258602
 C         3.118948         0.205979        -1.412928
 O         3.816281        -0.921167        -1.601327
 C         1.710301         0.373873        -0.842581
 C         3.002811         0.681009         0.025263
 O         3.564441        -0.059328         1.010959
 C         2.787607         2.225591         0.028627
 H         0.272288         3.034700        -0.728897
 H         1.259250         3.882647        -2.094802
 H         0.047114         2.572030        -2.469022
 H         2.740825         1.120890        -3.270819
 H         3.995312         2.135542        -2.241019
 H         4.262647        -1.098078        -0.791224
 H         0.784832        -0.443500        -0.765734
 H         3.486615         0.376424         1.914566
 H         2.127013         2.514712         0.888143
 H         3.588623         2.853775        -0.059400
