19
Iteration:  1791
 C         0.849148         2.833967        -1.752948
 C         1.973626         1.997228        -1.198815
 C         3.181018         1.474893        -2.195320
 C         3.121933         0.158374        -1.429308
 O         3.746669        -1.072555        -1.659932
 C         1.754746         0.423484        -0.853164
 C         2.981722         0.724015        -0.025060
 O         3.574377        -0.007321         0.980689
 C         2.697119         2.255783         0.051238
 H        -0.016417         3.007263        -1.125195
 H         1.161050         3.883232        -1.674588
 H         0.479669         2.676792        -2.740115
 H         2.853450         1.308911        -3.233213
 H         4.104239         1.986584        -2.277246
 H         4.129546        -1.266309        -0.803587
 H         0.937649        -0.266511        -0.434137
 H         3.054716        -0.008647         1.767138
 H         2.161579         2.518643         0.941387
 H         3.528366         2.946891        -0.106918
