19
Iteration:  4613charge 0 multiplicity 1
 C         0.850108         2.940729        -1.825033
 C         1.888151         2.018547        -1.206877
 C         3.106683         1.502383        -2.269139
 C         3.187233         0.174396        -1.359798
 O         3.921202        -1.011032        -1.569525
 C         1.730751         0.337278        -0.895797
 C         2.929046         0.699618        -0.005656
 O         3.520768        -0.014701         1.005458
 C         2.753140         2.201689         0.037293
 H         0.224140         3.113840        -0.979611
 H         1.467513         3.800510        -2.142621
 H         0.167798         2.511994        -2.522949
 H         2.572700         1.246224        -3.185813
 H         3.955337         2.107311        -2.298986
 H         4.108497        -1.384382        -0.686264
 H         0.898282        -0.374454        -0.650942
 H         2.856415        -0.504006         1.577995
 H         1.958060         2.412174         0.835806
 H         3.626431         2.916017        -0.011977
