19
Iteration:  4617charge 0 multiplicity 1
 C         0.860865         2.968982        -1.828397
 C         1.882720         1.997427        -1.201302
 C         3.101548         1.456558        -2.261957
 C         3.192731         0.165538        -1.399748
 O         3.910076        -1.011515        -1.565819
 C         1.760251         0.398467        -0.883926
 C         2.921948         0.707838        -0.023131
 O         3.557513        -0.029360         1.047842
 C         2.694259         2.167535         0.033353
 H         0.125197         3.152391        -0.971891
 H         1.432281         3.817806        -2.154488
 H         0.147246         2.579319        -2.574454
 H         2.665074         1.257594        -3.239907
 H         3.997388         2.230554        -2.280369
 H         4.055866        -1.329363        -0.650479
 H         0.991508        -0.244997        -0.631533
 H         2.945996        -0.620866         1.464912
 H         1.937081         2.424725         0.810426
 H         3.497794         2.964936        -0.091318
