19
Iteration:   617
 C         0.929081         2.876101        -1.814068
 C         1.882024         1.952696        -1.216865
 C         3.063549         1.482995        -2.199147
 C         3.134027         0.142378        -1.417072
 O         3.792657        -1.038938        -1.766971
 C         1.746769         0.425894        -0.822127
 C         3.024622         0.712622         0.034667
 O         3.636391         0.014119         1.095904
 C         2.648179         2.221636         0.059209
 H         0.031493         2.974610        -1.202906
 H         1.286949         3.835806        -2.084886
 H         0.597233         2.425119        -2.740486
 H         2.619038         1.303775        -3.231011
 H         4.205132         1.742545        -2.182201
 H         4.430532        -1.031310        -0.983805
 H         0.790550        -0.178054        -0.424129
 H         2.986513        -0.058168         1.809757
 H         1.913043         2.490619         0.937165
 H         3.380755         3.044543        -0.047085
