19
Iteration:  2455
 C         0.908801         2.889254        -1.697746
 C         1.959716         1.920377        -1.257322
 C         3.038567         1.404628        -2.310293
 C         3.144044         0.132494        -1.409966
 O         3.748060        -1.042481        -1.731847
 C         1.754755         0.472819        -0.758095
 C         3.061455         0.712380         0.013043
 O         3.504500         0.064384         1.128517
 C         2.772944         2.272241         0.044511
 H        -0.028324         2.923652        -1.073538
 H         1.435477         3.781148        -1.678076
 H         0.612389         2.817019        -2.801120
 H         2.486496         1.266275        -3.242296
 H         3.934936         2.155522        -2.503878
 H         4.480593        -1.216386        -1.160728
 H         0.990977        -0.240685        -0.751672
 H         3.019193        -0.706319         1.399459
 H         2.051407         2.269776         0.813587
 H         3.532949         2.878543        -0.221029
