19
Iteration:  4579
 C         0.830023         2.768928        -1.738152
 C         2.004114         1.939159        -1.318130
 C         3.152699         1.460695        -2.385903
 C         3.141457         0.297914        -1.353886
 O         3.919592        -0.853728        -1.647082
 C         1.691275         0.494383        -0.851644
 C         2.938652         0.651664         0.158707
 O         3.370017        -0.217687         1.149287
 C         2.804386         2.234755        -0.084680
 H         0.309511         3.090721        -0.897911
 H         1.170111         3.776535        -2.080193
 H         0.228629         2.373736        -2.543919
 H         2.646879         1.169645        -3.342794
 H         4.053750         1.828052        -2.701775
 H         4.479971        -1.101396        -0.943675
 H         0.644502        -0.015513        -0.761669
 H         3.562596         0.266241         1.969366
 H         2.092799         2.596480         0.736463
 H         3.664875         2.909285         0.028862
