19
Iteration:  2026
 C         0.842755         2.973128        -1.624560
 C         1.954154         1.837600        -1.328512
 C         3.102986         1.384032        -2.325683
 C         3.171086         0.218842        -1.365888
 O         3.892366        -0.915900        -1.682643
 C         1.764149         0.409292        -0.753836
 C         2.936439         0.719204         0.081962
 O         3.459546        -0.086699         1.015515
 C         2.770844         2.243634        -0.084166
 H         0.524668         3.361500        -0.612824
 H         1.358061         3.826901        -2.111802
 H        -0.076730         2.486519        -2.124626
 H         2.792222         1.103008        -3.319224
 H         4.045264         2.011713        -2.398836
 H         4.127817        -1.504273        -0.975757
 H         0.899366        -0.342534        -0.478772
 H         2.768101        -0.148286         1.738342
 H         1.985372         2.739350         0.586520
 H         3.681107         3.003554        -0.213932
