19
Iteration:   906charge 0 multiplicity 1
 C         0.910491         2.918156        -1.781489
 C         1.901826         1.925875        -1.266516
 C         2.982709         1.519272        -2.225373
 C         3.151927         0.219456        -1.403738
 O         3.956463        -1.024080        -1.683753
 C         1.752714         0.344708        -0.798197
 C         2.944684         0.670228         0.008471
 O         3.513312         0.003263         1.097726
 C         2.773111         2.202049        -0.021219
 H         0.148753         3.222795        -1.075229
 H         1.251217         3.868195        -2.165437
 H         0.342368         2.419973        -2.560207
 H         2.383263         1.087999        -3.099092
 H         3.870061         2.126920        -2.538418
 H         3.969889        -1.485121        -0.843481
 H         0.823343        -0.181170        -0.481094
 H         3.012826         0.396256         1.876227
 H         2.204209         2.540252         0.872646
 H         3.717389         2.663572        -0.142946
