19
Iteration:  3193charge 0 multiplicity 1
 C         0.906080         2.868752        -1.741776
 C         1.928733         1.845906        -1.284601
 C         3.024391         1.459455        -2.239127
 C         3.232535         0.278972        -1.406631
 O         3.733141        -1.007949        -1.689016
 C         1.764872         0.414347        -0.795361
 C         3.086832         0.723435         0.003970
 O         3.519836        -0.057740         1.115021
 C         2.730189         2.284578         0.000715
 H         0.214055         3.281043        -1.039141
 H         1.608318         3.692992        -2.066999
 H         0.247476         2.510268        -2.573901
 H         2.871527         1.179421        -3.240806
 H         3.766374         2.316222        -2.289184
 H         4.135237        -1.262317        -0.829889
 H         0.949987        -0.229173        -0.771790
 H         2.700375        -0.597464         1.312593
 H         2.000413         2.567583         0.851405
 H         3.618335         3.011300        -0.001194
