19
Iteration:  2913charge 0 multiplicity 1
 C         0.903902         2.967200        -1.820172
 C         1.940613         1.962054        -1.354819
 C         3.063506         1.402762        -2.315970
 C         3.110147         0.298350        -1.373502
 O         3.640443        -1.034792        -1.601806
 C         1.822261         0.435045        -0.725623
 C         3.040634         0.728282         0.103766
 O         3.602933        -0.115596         1.109369
 C         2.697039         2.233297         0.093269
 H         0.118067         3.208587        -1.039400
 H         1.444516         3.821962        -2.071570
 H         0.297611         2.540433        -2.636145
 H         2.928664         0.988170        -3.377199
 H         4.116368         1.853559        -2.462961
 H         4.521220        -0.934420        -2.066148
 H         0.877499        -0.272487        -0.694026
 H         3.881640        -0.898402         0.650283
 H         1.798059         2.616999         0.756618
 H         3.419185         3.084103         0.165783
