19
Iteration:  1232
 C         0.874087         2.860488        -1.795290
 C         1.921848         1.924236        -1.341168
 C         3.053203         1.415173        -2.279769
 C         3.145533         0.248692        -1.314834
 O         3.838650        -1.006403        -1.562832
 C         1.664555         0.455079        -0.842589
 C         2.894318         0.717979         0.148928
 O         3.556485        -0.021853         1.061354
 C         2.766095         2.200203         0.010070
 H         0.355344         3.136479        -0.841869
 H         1.359433         3.785163        -2.062625
 H         0.223749         2.401116        -2.548500
 H         2.538233         1.160704        -3.239906
 H         3.907240         2.084646        -2.771980
 H         4.722031        -0.598412        -1.490971
 H         0.822739        -0.303505        -0.596206
 H         4.237567        -0.468287         0.477163
 H         2.155705         2.628694         0.798807
 H         3.751735         2.687737        -0.097781
