19
Iteration:  2668charge 0 multiplicity 1
 C         0.784039         2.869376        -1.629938
 C         2.034533         2.013420        -1.246285
 C         3.052678         1.402112        -2.324982
 C         3.132747         0.163834        -1.468323
 O         3.779550        -1.086199        -1.591970
 C         1.752620         0.510467        -0.825669
 C         3.021639         0.692544        -0.005230
 O         3.418530         0.025383         1.061278
 C         2.933150         2.220932         0.013793
 H         0.117524         2.799528        -0.796480
 H         1.030213         3.941577        -1.884597
 H         0.307607         2.457111        -2.477514
 H         2.629701         1.188591        -3.450055
 H         3.994806         2.104415        -2.405367
 H         4.711547        -0.875165        -1.614530
 H         1.002680        -0.285393        -0.659173
 H         2.737181        -0.117345         1.746012
 H         2.239164         2.544257         0.813859
 H         3.762952         2.667844        -0.324549
