19
Iteration:  2884
 C         0.964956         2.873610        -1.765959
 C         1.947902         1.961480        -1.176975
 C         3.000538         1.491124        -2.198451
 C         3.121786         0.212482        -1.452552
 O         3.683630        -1.085607        -1.697959
 C         1.763303         0.385456        -0.827889
 C         2.991671         0.652576        -0.005464
 O         3.496857         0.113493         1.125114
 C         2.814966         2.211903         0.090472
 H         0.249509         3.318362        -1.076183
 H         1.521240         3.784340        -2.200163
 H         0.513709         2.372982        -2.592722
 H         2.725564         1.270135        -3.198147
 H         3.963758         1.988509        -2.545912
 H         4.642045        -1.100230        -1.611895
 H         0.785495        -0.198728        -0.670058
 H         3.904279        -0.762476         0.952798
 H         2.118142         2.409782         0.867641
 H         3.655370         2.936345        -0.093880
