19
Iteration:  1734charge 0 multiplicity 1
 C         0.825706         2.878121        -1.788988
 C         1.936381         1.873920        -1.305980
 C         3.085355         1.485928        -2.228344
 C         3.193176         0.248709        -1.335131
 O         3.707700        -1.024405        -1.702030
 C         1.825939         0.376755        -0.775456
 C         2.967876         0.788594         0.071625
 O         3.567529        -0.112006         1.009531
 C         2.718708         2.299041         0.051801
 H         0.139301         3.133267        -0.942030
 H         1.552855         3.691458        -2.060051
 H         0.324117         2.629541        -2.711936
 H         2.816377         0.910661        -3.118579
 H         3.881379         2.169800        -2.241958
 H         4.655842        -1.131141        -1.381422
 H         1.040739        -0.261768        -0.723842
 H         3.059420        -0.113404         1.873804
 H         2.058451         2.813119         0.787753
 H         3.666161         2.849823        -0.064849
