19
Iteration:  3595
 C         0.947140         2.935956        -1.706372
 C         1.992116         1.932203        -1.290851
 C         2.979723         1.406149        -2.343341
 C         3.093944         0.181289        -1.454341
 O         3.941124        -0.911471        -1.624490
 C         1.672099         0.371158        -0.813178
 C         2.977763         0.642014         0.059450
 O         3.437191        -0.012371         1.136573
 C         2.742544         2.213443         0.002237
 H         0.190007         2.949939        -0.989206
 H         1.445696         3.902880        -1.946347
 H         0.462263         2.586073        -2.609454
 H         2.444241         1.186891        -3.297971
 H         3.925382         1.924145        -2.424406
 H         3.963462        -1.437325        -0.758039
 H         0.671216         0.012870        -0.683780
 H         4.437137        -0.013522         1.033439
 H         2.050838         2.613678         0.646967
 H         3.729409         2.795239         0.009565
