19
Iteration:  1807charge 0 multiplicity 1
 C         0.862191         2.951084        -1.752645
 C         1.926834         1.857472        -1.355500
 C         3.072126         1.429212        -2.259446
 C         3.135918         0.227903        -1.326091
 O         3.796169        -0.954649        -1.686612
 C         1.757832         0.421663        -0.715053
 C         2.993457         0.769838         0.080014
 O         3.564954        -0.153711         1.026977
 C         2.776637         2.270127        -0.060120
 H         0.129655         2.812952        -0.929920
 H         1.257550         3.980660        -1.843594
 H         0.551498         2.589304        -2.763608
 H         2.728508         1.274771        -3.288529
 H         3.959817         2.126553        -2.048988
 H         4.079689        -1.438082        -0.871526
 H         0.928813        -0.204899        -0.749635
 H         2.899927        -0.317793         1.686663
 H         2.052452         2.679092         0.694103
 H         3.578698         3.026750        -0.055910
