19
Iteration:   688charge 0 multiplicity 1
 C         0.813219         2.854739        -1.650228
 C         1.992444         1.975363        -1.308045
 C         3.059453         1.444382        -2.306550
 C         3.149078         0.169982        -1.465640
 O         3.914395        -1.016940        -1.601585
 C         1.791115         0.432450        -0.803529
 C         2.947394         0.733937         0.005464
 O         3.455788        -0.032817         1.032850
 C         2.808009         2.214403        -0.002368
 H         0.149118         2.942968        -0.759297
 H         0.948198         3.879679        -2.129087
 H         0.106579         2.486765        -2.421347
 H         2.664695         1.262509        -3.352663
 H         3.862638         2.185965        -2.422133
 H         4.130850        -1.073285        -0.605400
 H         0.999321        -0.305535        -0.572396
 H         2.759425        -0.096633         1.697132
 H         2.229157         2.723463         0.732636
 H         3.747185         2.809140        -0.088553
