19
Iteration:  4135charge 0 multiplicity 1
 C         0.853654         2.876706        -1.785017
 C         1.920646         1.901468        -1.314620
 C         3.174007         1.456530        -2.277775
 C         3.175468         0.235938        -1.345457
 O         3.896843        -0.933880        -1.669717
 C         1.693688         0.461041        -0.878591
 C         2.953133         0.636766         0.076738
 O         3.452124         0.006571         1.269670
 C         2.775062         2.182398        -0.004681
 H         0.160527         3.101763        -0.921514
 H         1.211882         3.834798        -2.196280
 H         0.327239         2.325704        -2.557241
 H         2.885983         0.984055        -3.273593
 H         3.843337         2.383590        -2.393515
 H         3.315127        -1.678680        -1.659918
 H         0.710663        -0.097321        -1.111417
 H         4.015989        -0.711609         0.976436
 H         2.014953         2.615500         0.640353
 H         3.627656         3.000256        -0.119827
