19
Iteration:  1076
 C         0.873190         2.931635        -1.742729
 C         1.900883         1.916182        -1.307213
 C         2.996979         1.393817        -2.250545
 C         3.159106         0.175866        -1.364243
 O         3.906570        -0.898820        -1.525641
 C         1.726387         0.359654        -0.868314
 C         2.924836         0.718971        -0.000025
 O         3.543930        -0.068980         0.978017
 C         2.763912         2.200968         0.000766
 H         0.183334         3.329799        -0.976827
 H         1.252810         3.835003        -2.196771
 H         0.218392         2.470409        -2.553750
 H         2.408659         1.168685        -3.110917
 H         3.953537         2.075434        -2.330650
 H         4.528136        -1.160720        -0.827706
 H         0.873919        -0.325114        -0.813043
 H         3.499510         0.278675         1.873554
 H         2.230762         2.559689         0.874568
 H         3.740171         2.809464        -0.177885
