19
Iteration:  4324charge 0 multiplicity 1
 C         0.886445         2.842987        -1.881653
 C         1.920027         1.990920        -1.290946
 C         3.142955         1.404682        -2.174908
 C         3.192027         0.179258        -1.326507
 O         3.901066        -0.995116        -1.614485
 C         1.726134         0.459450        -0.855147
 C         2.946753         0.697810         0.021730
 O         3.543104        -0.069222         1.092951
 C         2.670986         2.255869         0.034452
 H         0.163038         2.991724        -1.084521
 H         1.028331         3.885360        -1.998446
 H         0.448401         2.368537        -2.776998
 H         2.640937         1.375484        -3.192455
 H         3.844809         2.223026        -2.124150
 H         3.724812        -1.167812        -2.583279
 H         0.832192        -0.131886        -0.646201
 H         3.019871         0.152984         1.885721
 H         1.954511         2.441186         0.905298
 H         3.664157         2.839740         0.254543
