19
Iteration:  2391charge 0 multiplicity 1
 C         0.859522         2.874279        -1.721652
 C         1.974055         1.931521        -1.277751
 C         3.118705         1.402361        -2.196066
 C         3.138336         0.206257        -1.368333
 O         3.742905        -0.961594        -1.636893
 C         1.747482         0.453159        -0.856056
 C         3.048948         0.727755         0.046866
 O         3.537550        -0.117080         0.958801
 C         2.721637         2.264682        -0.009550
 H         0.417344         3.393264        -0.832006
 H         1.184861         3.654336        -2.490150
 H         0.177251         2.363672        -2.357346
 H         2.684670         1.191772        -3.197740
 H         3.948961         2.030876        -2.447941
 H         4.304838        -1.188273        -0.862904
 H         0.972703        -0.141755        -0.479151
 H         3.169323        -0.011010         1.830045
 H         2.014192         2.465565         0.906855
 H         3.575704         3.101439        -0.022696
