19
Iteration:  3922charge 0 multiplicity 1
 C         0.913635         2.936512        -1.675728
 C         1.895169         1.855375        -1.351874
 C         3.035218         1.403402        -2.348052
 C         3.166131         0.232858        -1.363632
 O         3.845735        -0.919071        -1.561821
 C         1.813530         0.411877        -0.848242
 C         2.991794         0.726442         0.048585
 O         3.391425        -0.103856         1.101383
 C         2.787295         2.221974        -0.049063
 H         0.235428         3.067790        -0.835332
 H         1.227607         3.946044        -1.968038
 H         0.400536         2.573217        -2.557454
 H         2.566573         1.072210        -3.363325
 H         3.812263         2.116472        -2.684061
 H         4.057760        -1.352129        -0.742406
 H         1.026466        -0.266613        -0.608502
 H         4.286727        -0.014170         1.384682
 H         2.144628         2.606338         0.817009
 H         3.449536         3.078705        -0.402162
