19
Iteration:  1406
 C        -0.102699         0.045295        -0.052815
 C         1.424896         0.221902        -0.131538
 C         2.426959         1.389124        -0.064666
 C         3.436004         0.430262         0.485129
 O         4.435351         0.820077         1.364677
 C         3.794533        -0.712651        -0.602669
 C         2.293038        -1.024795        -0.404320
 O         1.553067        -2.124576        -0.903435
 C         2.203947        -0.531726         0.979270
 H        -0.396808         0.365379         0.928136
 H        -0.412267         0.450742        -0.947778
 H        -0.458559        -0.977393        -0.064847
 H         2.503041         1.942176        -1.014604
 H         2.217688         2.203601         0.641827
 H         4.821697         1.644425         1.036938
 H         4.218313        -0.428344        -1.572399
 H         4.427773        -1.392171        -0.029949
 H         1.815719        -2.514911        -1.760745
 H         2.032403        -0.799757         2.023900
