19
Iteration:  1848charge 0 multiplicity 1
 C        -0.068421         0.186173        -0.351357
 C         1.384776         0.113264        -0.041295
 C         2.286242         1.299017         0.094696
 C         3.451005         0.397108         0.621991
 O         4.677850         0.901411         1.093286
 C         3.643572        -0.712400        -0.463344
 C         2.222423        -1.063923        -0.311751
 O         1.697200        -2.154982        -1.038513
 C         2.212135        -0.499366         1.107212
 H        -0.657428         0.675532         0.495940
 H        -0.066416         0.686670        -1.332263
 H        -0.564282        -0.730125        -0.489141
 H         2.595260         1.997280        -0.837006
 H         1.995666         2.128586         0.877231
 H         4.725463         0.693833         2.003724
 H         4.080435        -0.357663        -1.448006
 H         4.159217        -1.662869         0.033623
 H         0.705769        -2.188960        -1.138975
 H         1.768560        -0.394650         2.191812
