19
Iteration:   290
 C        -0.063396         0.064273        -0.046653
 C         1.465023         0.160067        -0.111944
 C         2.349622         1.498493        -0.000046
 C         3.470318         0.466493         0.464234
 O         4.452904         0.729528         1.427304
 C         3.644403        -0.534054        -0.766775
 C         2.257543        -1.029299        -0.460296
 O         1.539264        -2.228391        -0.908472
 C         2.345570        -0.564317         0.995285
 H        -0.442380         0.727441         0.741887
 H        -0.636318         0.395493        -0.926371
 H        -0.281975        -0.959645         0.163494
 H         2.499217         2.318210        -0.695268
 H         1.949584         1.967517         0.858706
 H         5.153726         1.299804         1.046502
 H         3.856078        -0.050647        -1.685977
 H         4.359364        -1.334238        -0.462584
 H         2.310639        -2.857999        -1.032543
 H         2.032034        -0.837413         1.922225
