19
Iteration:  1684charge 0 multiplicity 1
 C        -0.044061         0.140091        -0.363599
 C         1.484662         0.157261        -0.021452
 C         2.359998         1.370615         0.052594
 C         3.425311         0.353648         0.579848
 O         4.513196         0.958598         1.257907
 C         3.695672        -0.689985        -0.672965
 C         2.296921        -1.134981        -0.356358
 O         1.579109        -2.123145        -0.928825
 C         2.277473        -0.598685         1.101513
 H        -0.374393         0.960060         0.382281
 H        -0.088095         0.429008        -1.435070
 H        -0.705780        -0.700080        -0.188231
 H         2.495957         2.041557        -0.819021
 H         2.079072         1.979180         0.856173
 H         4.505496         0.669654         2.230826
 H         3.848907        -0.332568        -1.704861
 H         4.388474        -1.499967        -0.329396
 H         0.698754        -1.742064        -1.009480
 H         2.041599        -0.917577         2.030132
