19
Iteration:  2025
 C        -0.084740         0.191516        -0.421166
 C         1.375368         0.140326        -0.039707
 C         2.458453         1.287575         0.015286
 C         3.475173         0.343973         0.537257
 O         4.564160         0.900611         1.330908
 C         3.707321        -0.642710        -0.665791
 C         2.310392        -1.046518        -0.369346
 O         1.562792        -2.218322        -0.782296
 C         2.214406        -0.545980         1.049263
 H        -0.675705         0.486472         0.505130
 H        -0.364035         0.905996        -1.168470
 H        -0.291197        -0.779703        -0.697686
 H         2.616253         1.869392        -0.901546
 H         2.303791         1.869015         0.934945
 H         4.212222         1.667469         1.729612
 H         3.945317        -0.037562        -1.592108
 H         4.370635        -1.424921        -0.320566
 H         0.877402        -1.904486        -1.422596
 H         1.817258        -0.884936         2.009432
