19
Iteration:  4249
 C        -0.017512         0.323152        -0.279031
 C         1.426124         0.163508        -0.069201
 C         2.409851         1.383227        -0.014186
 C         3.411409         0.418881         0.525658
 O         4.367210         0.897829         1.285304
 C         3.753203        -0.630237        -0.612924
 C         2.212274        -1.108561        -0.350644
 O         1.680658        -2.267704        -0.850496
 C         2.298047        -0.661561         1.032569
 H        -0.480435         1.111457         0.288943
 H        -0.247524         0.511966        -1.330339
 H        -0.620661        -0.664031        -0.052227
 H         2.652913         1.942279        -0.913536
 H         1.948544         2.061068         0.694584
 H         5.216497         0.397889         0.963578
 H         3.971006        -0.153992        -1.631228
 H         4.627319        -1.275276        -0.130636
 H         0.785295        -2.448531        -0.523926
 H         1.773146        -0.797365         2.010675
