19
Iteration:  3158
 C        -0.072265         0.308041        -0.200099
 C         1.417142         0.270191        -0.084456
 C         2.440282         1.492720        -0.023017
 C         3.330379         0.394345         0.544804
 O         4.502494         0.690089         1.231789
 C         3.588073        -0.525345        -0.667164
 C         2.272572        -1.115307        -0.400416
 O         1.786354        -2.399648        -0.724488
 C         2.168825        -0.523343         0.952520
 H        -0.379981         1.117072         0.396756
 H        -0.341345         0.315055        -1.293986
 H        -0.540980        -0.600542         0.184034
 H         2.535870         1.975625        -1.098147
 H         2.105251         2.180172         0.724104
 H         4.392169         1.030638         2.199747
 H         3.785030        -0.162721        -1.676150
 H         4.274212        -1.262771        -0.261156
 H         2.313605        -2.687938        -1.499641
 H         1.808526        -0.747262         1.861200
