19
Iteration:  2774
 C        -0.109366         0.166354        -0.172960
 C         1.382640         0.189245        -0.030661
 C         2.414705         1.302457        -0.056577
 C         3.447843         0.348927         0.546169
 O         4.486026         1.009925         1.301065
 C         3.801372        -0.706538        -0.534822
 C         2.245411        -1.060072        -0.379730
 O         1.656893        -2.227533        -0.996128
 C         2.122382        -0.511366         1.068775
 H        -0.503924         0.867512         0.580658
 H        -0.630246         0.218265        -1.111167
 H        -0.488428        -0.803812         0.315155
 H         2.712134         1.790618        -0.986430
 H         2.103877         1.852320         0.857062
 H         5.357188         0.818731         0.802388
 H         4.039450        -0.285276        -1.535590
 H         4.381870        -1.567386        -0.099988
 H         1.424046        -1.738985        -1.778531
 H         1.966441        -0.984052         1.915817
