19
Iteration:   944charge 0 multiplicity 1
 C        -0.077117         0.147059        -0.041765
 C         1.427589         0.107899        -0.098890
 C         2.347707         1.301047         0.070406
 C         3.457251         0.377069         0.570894
 O         4.418833         1.053254         1.330748
 C         3.729237        -0.648230        -0.620757
 C         2.237681        -1.067777        -0.516823
 O         1.521373        -2.104651        -1.057996
 C         2.396295        -0.634723         1.020449
 H        -0.391898         0.625126         0.921987
 H        -0.529576         0.488467        -0.974120
 H        -0.491553        -0.895711         0.077995
 H         2.483798         2.185326        -0.733691
 H         1.980509         1.919061         0.948826
 H         5.187753         0.513368         1.320600
 H         4.064469        -0.363980        -1.647515
 H         4.486476        -1.418557        -0.340757
 H         2.027205        -2.838329        -1.497920
 H         2.217014        -0.937519         2.070262
