19
Iteration:   949
 C        -0.104321         0.108555        -0.062238
 C         1.465028         0.132843        -0.076422
 C         2.350409         1.307618         0.064562
 C         3.482207         0.345370         0.513732
 O         4.408266         1.029926         1.352841
 C         3.783049        -0.594713        -0.628954
 C         2.252335        -1.033760        -0.500191
 O         1.478120        -2.115699        -1.020641
 C         2.370663        -0.636796         0.994021
 H        -0.437261         0.634383         0.818568
 H        -0.574708         0.574702        -0.953063
 H        -0.497915        -0.896145         0.060269
 H         2.354497         2.059262        -0.659725
 H         1.943428         1.846378         0.899875
 H         5.301237         0.534411         1.316126
 H         4.122625        -0.316747        -1.648703
 H         4.518267        -1.350524        -0.351712
 H         2.020704        -2.823536        -1.381502
 H         2.175712        -0.996638         2.043310
