19
Iteration:  2931
 C        -0.110878         0.167228        -0.174481
 C         1.408934         0.185476        -0.002094
 C         2.411095         1.358430        -0.078479
 C         3.451762         0.377784         0.569125
 O         4.539425         0.974397         1.201043
 C         3.731342        -0.730954        -0.533640
 C         2.211807        -1.095205        -0.354290
 O         1.671005        -2.225538        -1.022424
 C         2.192890        -0.567580         1.096915
 H        -0.547222         0.946931         0.470032
 H        -0.378566         0.237761        -1.187612
 H        -0.603966        -0.702924         0.207962
 H         2.632916         1.803203        -1.011730
 H         2.296364         2.180697         0.747304
 H         4.430443         1.309124         2.054877
 H         4.050700        -0.232630        -1.417457
 H         4.330751        -1.547819        -0.178771
 H         1.245690        -1.671269        -1.716348
 H         1.929443        -1.219756         2.008848
