19
Iteration:  3248
 C        -0.136718         0.103929        -0.243412
 C         1.414009         0.180920        -0.135938
 C         2.399481         1.376501        -0.102094
 C         3.472756         0.360728         0.621982
 O         4.585354         0.847093         1.238255
 C         3.693638        -0.685519        -0.550328
 C         2.224239        -1.102785        -0.320330
 O         1.664200        -2.170898        -0.926304
 C         2.271417        -0.465148         1.089846
 H        -0.679311         0.409696         0.712784
 H        -0.617846         0.727578        -1.027817
 H        -0.517864        -0.850027        -0.511600
 H         2.407831         1.990752        -1.203355
 H         2.115369         1.994173         0.716009
 H         4.362065         1.663942         1.785290
 H         4.242036        -0.410593        -1.475411
 H         4.249461        -1.566444        -0.133146
 H         0.810537        -1.801975        -1.282483
 H         1.894292        -0.775567         2.226656
