19
Iteration:  4917charge 0 multiplicity 1
 C        -0.021499         0.023262        -0.327648
 C         1.398473         0.182982         0.018282
 C         2.291333         1.323222         0.020186
 C         3.457799         0.458839         0.499255
 O         4.473336         0.705693         1.385167
 C         3.693857        -0.575485        -0.677644
 C         2.311873        -0.997892        -0.349461
 O         1.633077        -2.097030        -0.826153
 C         2.272689        -0.549305         0.992724
 H        -0.550140         0.796516         0.328333
 H        -0.298776         0.321894        -1.394177
 H        -0.465679        -0.894339        -0.089002
 H         2.362457         1.826469        -0.997214
 H         2.083234         2.085393         0.792409
 H         4.836695         1.703802         1.338004
 H         3.597610        -0.009968        -1.529818
 H         4.540536        -1.198249        -0.563408
 H         1.600586        -2.162807        -1.786332
 H         2.049265        -1.171050         1.979351
