19
Iteration:  2412charge 0 multiplicity 1
 C        -0.125365         0.255256        -0.247583
 C         1.377025         0.198254        -0.004999
 C         2.422761         1.358187        -0.036411
 C         3.392778         0.384897         0.555670
 O         4.502097         0.821950         1.333793
 C         3.683191        -0.563420        -0.605546
 C         2.221987        -1.076434        -0.418627
 O         1.768760        -2.359353        -0.884884
 C         2.237853        -0.490801         1.049140
 H        -0.673451         0.766903         0.620987
 H        -0.475256         0.621614        -1.173341
 H        -0.508356        -0.827420        -0.102928
 H         2.526019         1.970062        -0.970968
 H         1.859895         2.061511         0.746789
 H         5.218231         1.311879         0.762570
 H         3.950366        -0.122132        -1.528277
 H         4.490995        -1.269365        -0.309784
 H         1.020273        -2.303643        -1.530196
 H         2.052016        -0.980173         1.929355
