19
Iteration:  3784
 C        -0.043554         0.276382        -0.199022
 C         1.452434         0.155100        -0.145349
 C         2.341469         1.407036        -0.058177
 C         3.396163         0.372500         0.600262
 O         4.514010         0.802580         1.342854
 C         3.705661        -0.594038        -0.671499
 C         2.257021        -1.060914        -0.502263
 O         1.688570        -2.358067        -0.734009
 C         2.242174        -0.495675         0.958611
 H        -0.379165         1.189085         0.386227
 H        -0.326864         0.408977        -1.288193
 H        -0.577002        -0.613316        -0.037416
 H         2.640914         1.925694        -1.069514
 H         1.906689         2.106861         0.606187
 H         4.445364         1.442109         1.993306
 H         4.192836        -0.247641        -1.548544
 H         4.251709        -1.466056        -0.295922
 H         0.794819        -2.241378        -1.079902
 H         1.913396        -0.921918         1.922282
