19
Iteration:   126
 C        -0.022581         0.173275        -0.027051
 C         1.426278         0.164289         0.029447
 C         2.287479         1.352243         0.119179
 C         3.409801         0.447272         0.506715
 O         4.535709         0.900564         1.208235
 C         3.688635        -0.542644        -0.719748
 C         2.255457        -1.060590        -0.489019
 O         1.577446        -2.205326        -0.948310
 C         2.278767        -0.648772         0.952536
 H        -0.525635         1.020533         0.465527
 H        -0.478721         0.167448        -1.037117
 H        -0.258661        -0.772710         0.466125
 H         2.485078         1.954413        -0.838206
 H         1.955344         2.086673         0.880250
 H         4.902755         0.367253         1.918835
 H         4.069269        -0.014650        -1.674316
 H         4.398704        -1.269756        -0.216332
 H         2.183249        -2.781710        -1.396789
 H         1.878870        -1.065823         1.917812
