19
Iteration:  2045
 C        -0.056974         0.198610        -0.353839
 C         1.406607         0.248733        -0.084747
 C         2.390286         1.462710        -0.009272
 C         3.388681         0.348779         0.521361
 O         4.531155         0.708443         1.309825
 C         3.734109        -0.571686        -0.644483
 C         2.262687        -1.026907        -0.370795
 O         1.625483        -2.293024        -0.687765
 C         2.225484        -0.552421         0.995519
 H        -0.749236         0.562368         0.507402
 H        -0.326249         1.067928        -1.035748
 H        -0.380410        -0.800890        -0.790179
 H         2.727841         1.911130        -0.891453
 H         1.976468         2.174474         0.767187
 H         4.377866         1.566097         1.713591
 H         3.830267        -0.085647        -1.618030
 H         4.501840        -1.315303        -0.339900
 H         1.685179        -2.516896        -1.621299
 H         1.954220        -1.084159         1.838963
