19
Iteration:  4925charge 0 multiplicity 1
 C        -0.034250         0.161207        -0.297480
 C         1.371431         0.154813         0.033529
 C         2.325583         1.343584         0.049198
 C         3.427333         0.396796         0.539589
 O         4.452357         0.786151         1.370135
 C         3.677636        -0.539344        -0.742114
 C         2.345427        -1.053699        -0.395801
 O         1.690739        -2.172539        -0.843214
 C         2.221016        -0.623271         1.064025
 H        -0.571996         0.858900         0.362297
 H        -0.163768         0.409836        -1.361052
 H        -0.479505        -0.830653        -0.148916
 H         2.440510         1.774640        -0.904306
 H         2.137800         2.098742         0.851422
 H         4.870669         1.638440         0.952549
 H         3.775791        -0.058850        -1.804350
 H         4.496653        -1.301259        -0.450197
 H         1.667347        -2.124878        -1.806350
 H         1.838281        -0.941502         1.999760
