19
Iteration:  3699
 C        -0.078637         0.144890        -0.272681
 C         1.445649         0.165200        -0.094688
 C         2.387372         1.367836        -0.057917
 C         3.450239         0.339624         0.574156
 O         4.551278         0.832505         1.201571
 C         3.728149        -0.662729        -0.504766
 C         2.296021        -1.128115        -0.378107
 O         1.587670        -2.075471        -0.939952
 C         2.161342        -0.518439         1.065461
 H        -0.705426         0.657155         0.507849
 H        -0.425533         0.422192        -1.282245
 H        -0.343893        -0.839406         0.034168
 H         2.509702         1.927372        -0.943816
 H         2.335093         2.009622         0.873087
 H         4.257434         1.718898         1.684285
 H         3.858744        -0.079902        -1.467880
 H         4.429088        -1.463388        -0.231868
 H         1.687229        -2.854977        -0.308199
 H         1.808383        -0.679960         2.077323
