19
Iteration:  2706
 C        -0.136426         0.201682        -0.325064
 C         1.346529         0.210100        -0.046590
 C         2.369338         1.429013         0.032879
 C         3.474787         0.489952         0.535828
 O         4.534007         0.796222         1.330013
 C         3.675605        -0.513699        -0.766274
 C         2.196652        -1.097927        -0.436335
 O         1.745392        -2.311786        -0.715257
 C         2.296840        -0.564558         1.012696
 H        -0.603601         0.884319         0.347534
 H        -0.463729         0.469221        -1.369264
 H        -0.734034        -0.674601        -0.066016
 H         2.776074         1.994181        -0.903130
 H         2.045003         2.014985         0.885749
 H         4.546115         0.371180         2.242953
 H         3.785295        -0.121410        -1.807711
 H         4.360891        -1.416121        -0.639645
 H         1.302473        -2.606282        -1.554562
 H         2.154656        -1.088924         2.065932
