19
Iteration:  3561charge 0 multiplicity 1
 C        -0.018338         0.090401        -0.298342
 C         1.410296         0.159418         0.062546
 C         2.393710         1.386290        -0.042364
 C         3.442046         0.391401         0.550152
 O         4.555367         0.844919         1.296928
 C         3.701998        -0.606038        -0.664133
 C         2.286886        -1.058661        -0.383944
 O         1.499205        -2.165495        -0.825032
 C         2.264464        -0.551692         1.033359
 H        -0.502335         0.926852         0.231518
 H        -0.132316         0.318966        -1.422691
 H        -0.629793        -0.839873         0.096310
 H         2.647852         1.849730        -1.054496
 H         2.077653         2.117721         0.620366
 H         4.353097         1.624603         1.747349
 H         3.943692        -0.220394        -1.657277
 H         4.351248        -1.416400        -0.286145
 H         1.630793        -2.540965        -1.698633
 H         1.926755        -0.996314         1.912592
