19
Iteration:  4818
 C        -0.059467         0.494036        -0.100837
 C         1.356755         0.062769         0.048521
 C         2.296718         1.299199         0.023663
 C         3.426955         0.387475         0.544418
 O         4.412274         0.908927         1.335059
 C         3.740753        -0.580914        -0.674770
 C         2.275533        -1.088280        -0.466091
 O         1.853799        -2.384377        -0.982128
 C         2.212947        -0.695318         1.008665
 H        -0.397283         0.975105         0.840851
 H        -0.302917         1.197021        -0.916609
 H        -0.682654        -0.370174        -0.134181
 H         2.527471         1.674388        -1.023998
 H         2.015364         2.227573         0.557266
 H         4.003182         1.813131         1.653265
 H         3.945019        -0.224019        -1.637405
 H         4.412120        -1.385118        -0.429504
 H         1.603133        -2.221524        -1.900004
 H         1.937031        -1.212562         1.862633
