19
Iteration:  3572
 C        -0.061807         0.201567        -0.279613
 C         1.439978         0.191693        -0.047921
 C         2.342725         1.325062        -0.009024
 C         3.453898         0.391433         0.530685
 O         4.546031         0.811033         1.254237
 C         3.672380        -0.617995        -0.665038
 C         2.234265        -1.009303        -0.384249
 O         1.628700        -2.154906        -0.763947
 C         2.220923        -0.656599         1.076212
 H        -0.552421         1.030711         0.250813
 H        -0.376592         0.257904        -1.419171
 H        -0.517490        -0.868870         0.021216
 H         2.605988         1.818491        -1.016933
 H         2.114236         2.066742         0.682321
 H         4.268609         1.629711         1.677519
 H         4.062283        -0.362646        -1.651013
 H         4.368734        -1.399481        -0.300918
 H         1.946118        -2.201589        -1.680889
 H         1.969262        -0.952886         2.065590
