19
Iteration:  3006
 C        -0.129352         0.242830        -0.192525
 C         1.418661         0.212850        -0.137648
 C         2.370029         1.409179        -0.094222
 C         3.489849         0.332073         0.484880
 O         4.501567         0.691638         1.345897
 C         3.602798        -0.537971        -0.753130
 C         2.258030        -1.007126        -0.436592
 O         1.791332        -2.295973        -0.672124
 C         2.221207        -0.502144         1.037007
 H        -0.536617         0.863342         0.668671
 H        -0.387247         0.801428        -1.136572
 H        -0.657982        -0.725852        -0.219068
 H         2.544269         2.075169        -0.931160
 H         1.901701         1.979384         0.787891
 H         4.098585         1.011656         2.252204
 H         3.655656         0.050672        -1.734397
 H         4.363882        -1.356396        -0.678700
 H         2.000008        -2.501034        -1.589942
 H         1.878449        -0.904699         2.030210
