19
Iteration:  1256charge 0 multiplicity 1
 C        -0.134794        -0.056659         0.007017
 C         1.357030         0.239583        -0.010010
 C         2.367234         1.515485        -0.203249
 C         3.415275         0.465343         0.520794
 O         4.602571         0.643289         1.297974
 C         3.678384        -0.617126        -0.534978
 C         2.218803        -1.003370        -0.371835
 O         1.728393        -2.237557        -0.995186
 C         2.180779        -0.358222         0.991808
 H        -0.651489         0.480062         0.840050
 H        -0.705538         0.386463        -0.934749
 H        -0.112659        -1.120411         0.025087
 H         2.647805         1.747894        -1.191631
 H         2.178043         2.356792         0.380178
 H         4.581181         1.440478         1.854350
 H         3.931050        -0.453819        -1.626316
 H         4.377803        -1.309354         0.005759
 H         1.801785        -1.999389        -1.935578
 H         1.978182        -0.815980         2.060706
