19
Iteration:  4844
 C        -0.142633         0.405779        -0.110975
 C         1.354646         0.063537         0.009562
 C         2.293328         1.345121        -0.026945
 C         3.402367         0.376650         0.557294
 O         4.482186         0.892810         1.279443
 C         3.702818        -0.580544        -0.532499
 C         2.323482        -1.123125        -0.445308
 O         1.828944        -2.330367        -1.022313
 C         2.294466        -0.625015         0.970167
 H        -0.482130         1.256632         0.473633
 H        -0.383356         0.668648        -1.134167
 H        -0.791702        -0.411850         0.243925
 H         2.480718         1.892729        -0.988428
 H         2.012357         2.121198         0.657283
 H         4.051784         0.986794         2.186117
 H         4.027662        -0.054268        -1.541553
 H         4.395478        -1.369604        -0.213443
 H         1.297011        -2.084733        -1.788359
 H         1.996247        -0.935845         2.048431
