19
Iteration:  1798
 C        -0.104246         0.328269        -0.112043
 C         1.432367         0.149571        -0.048360
 C         2.456101         1.321938        -0.179145
 C         3.482863         0.324628         0.545662
 O         4.430688         0.813703         1.397919
 C         3.701900        -0.619271        -0.746820
 C         2.228769        -1.009127        -0.491649
 O         1.703466        -2.255565        -0.778634
 C         2.269739        -0.556880         1.023339
 H        -0.535395         0.661654         0.854990
 H        -0.425019         0.951043        -0.948381
 H        -0.636903        -0.668830        -0.422989
 H         2.650340         1.739851        -1.157369
 H         2.134824         2.037016         0.596108
 H         3.885175         1.186821         2.103447
 H         3.946713        -0.000858        -1.595927
 H         4.339776        -1.343937        -0.388433
 H         1.306598        -2.414169        -1.633608
 H         1.899001        -0.924789         1.914620
