19
Iteration:  4722charge 0 multiplicity 1
 C        -0.059310         0.136765        -0.267366
 C         1.420036         0.195152         0.036711
 C         2.344941         1.426821         0.009761
 C         3.485381         0.390741         0.545727
 O         4.573898         0.818024         1.284180
 C         3.658383        -0.495492        -0.646978
 C         2.255424        -1.079713        -0.359228
 O         1.666720        -2.262205        -0.930722
 C         2.210022        -0.672501         1.107033
 H        -0.764528         0.836904         0.261180
 H        -0.304256         0.298460        -1.345362
 H        -0.448009        -0.819037        -0.060689
 H         2.569553         1.950499        -0.943261
 H         1.931876         2.159050         0.631927
 H         4.258009         1.644136         1.817591
 H         3.952273         0.193623        -1.549194
 H         4.371047        -1.301000        -0.558743
 H         1.268484        -2.047483        -1.787644
 H         1.859311        -1.209432         1.896570
