19
Iteration:  2061charge 0 multiplicity 1
 C        -0.044326         0.308911        -0.296168
 C         1.452980         0.218574        -0.091371
 C         2.323616         1.432372        -0.070799
 C         3.401208         0.499635         0.534787
 O         4.534496         0.604968         1.309299
 C         3.604326        -0.545845        -0.622243
 C         2.212134        -1.091390        -0.426033
 O         1.732550        -2.302025        -0.704000
 C         2.203402        -0.526767         0.982882
 H        -0.573644         0.470151         0.598981
 H        -0.370082         0.928751        -1.085277
 H        -0.409021        -0.651876        -0.536364
 H         2.442024         2.070455        -1.042850
 H         2.041428         2.181141         0.646544
 H         4.473085         1.278146         1.941194
 H         4.119824        -0.285726        -1.592927
 H         4.313014        -1.296044        -0.237107
 H         2.334374        -2.692640        -1.389826
 H         1.828121        -0.974220         2.002922
