19
Iteration:   761
 C        -0.068746         0.223136         0.056145
 C         1.399096         0.127565         0.002394
 C         2.368912         1.305849         0.076513
 C         3.474773         0.383646         0.545046
 O         4.558238         1.121467         1.273562
 C         3.658007        -0.566298        -0.604793
 C         2.213010        -1.097238        -0.486215
 O         1.638506        -2.229179        -1.188013
 C         2.157697        -0.716655         0.968111
 H        -0.453660         0.794441         0.893697
 H        -0.494076         0.465533        -0.954451
 H        -0.385330        -0.847137         0.253038
 H         2.561644         2.009262        -0.763160
 H         2.041384         2.008258         0.860016
 H         5.113188         0.474910         1.720303
 H         4.070079        -0.101683        -1.561087
 H         4.355760        -1.314263        -0.269302
 H         2.113533        -3.006695        -0.889262
 H         1.803792        -1.236896         1.757749
