19
Iteration:   975charge 0 multiplicity 1
 C        -0.071704         0.062568        -0.165560
 C         1.424495         0.183705         0.082635
 C         2.372502         1.407425         0.033789
 C         3.387444         0.386325         0.542014
 O         4.433612         0.840350         1.374569
 C         3.719258        -0.477529        -0.762326
 C         2.309629        -1.009065        -0.501599
 O         1.581496        -2.105737        -0.902670
 C         2.300855        -0.663219         0.971993
 H        -0.755691         0.579828         0.595856
 H        -0.351414         0.547310        -1.123786
 H        -0.270125        -1.015702        -0.184496
 H         2.533759         1.781779        -1.003126
 H         2.044258         2.300192         0.721394
 H         5.189189         0.217385         1.108136
 H         3.800388        -0.031876        -1.760762
 H         4.591786        -1.165648        -0.607157
 H         1.758604        -2.905764        -0.401063
 H         2.212077        -1.302056         1.815028
