19
Iteration:  4091charge 0 multiplicity 1
 C        -0.142928         0.209841        -0.255950
 C         1.401245         0.186737        -0.178313
 C         2.321751         1.423237        -0.135819
 C         3.408608         0.420282         0.537781
 O         4.548417         0.722025         1.421620
 C         3.676163        -0.600622        -0.625557
 C         2.272069        -1.119802        -0.272855
 O         1.772848        -2.222234        -0.893721
 C         2.130446        -0.408553         1.019949
 H        -0.435556         1.076798         0.374029
 H        -0.403369         0.095735        -1.318501
 H        -0.405802        -0.658047         0.252011
 H         2.805651         1.840683        -1.004911
 H         1.904493         2.143642         0.519646
 H         5.259906         0.196572         0.909439
 H         3.915282        -0.073677        -1.610672
 H         4.613032        -1.156589        -0.273768
 H         1.080835        -2.574560        -0.322485
 H         2.028650        -0.790096         2.077482
