19
Iteration:   738
 C        -0.136312         0.187321         0.056642
 C         1.409276         0.105324         0.029404
 C         2.308081         1.335921        -0.020054
 C         3.402643         0.314678         0.510143
 O         4.364616         0.933846         1.302258
 C         3.762819        -0.563950        -0.740310
 C         2.358930        -1.002153        -0.493871
 O         1.629406        -2.096895        -1.050474
 C         2.373632        -0.673115         0.985457
 H        -0.291404         1.005309         0.789982
 H        -0.479161         0.439235        -0.989010
 H        -0.737518        -0.687154         0.410915
 H         2.476218         1.960576        -0.946970
 H         2.166367         2.105059         0.690035
 H         4.714742         0.347827         2.052884
 H         4.157208        -0.082081        -1.695412
 H         4.408579        -1.387219        -0.423431
 H         1.991770        -2.871307        -0.563437
 H         2.244728        -1.230687         1.821497
