19
Iteration:  1409charge 0 multiplicity 1
 C        -0.090929         0.044289        -0.033059
 C         1.451620         0.236107        -0.123609
 C         2.415124         1.381584        -0.076580
 C         3.463080         0.427632         0.500445
 O         4.432412         0.840472         1.398179
 C         3.775461        -0.713142        -0.611985
 C         2.279868        -1.035706        -0.443495
 O         1.535707        -2.149563        -0.913906
 C         2.224046        -0.533958         0.993008
 H        -0.447591         0.452561         0.892976
 H        -0.435047         0.528938        -0.932426
 H        -0.441727        -0.912888        -0.065576
 H         2.527938         1.954763        -1.117436
 H         2.172051         2.221875         0.545484
 H         4.676483         1.785539         1.044166
 H         4.257262        -0.470355        -1.542443
 H         4.424321        -1.411173        -0.090077
 H         1.775138        -2.548408        -1.736863
 H         2.086770        -0.907814         1.920779
