19
Iteration:  3814charge 0 multiplicity 1
 C        -0.105708         0.153497        -0.157473
 C         1.412140         0.239670        -0.100787
 C         2.421664         1.415047        -0.185352
 C         3.460648         0.305828         0.491522
 O         4.474931         0.814194         1.291706
 C         3.706338        -0.687768        -0.508058
 C         2.278429        -1.092329        -0.298982
 O         1.710623        -2.181032        -0.918123
 C         2.206472        -0.485402         1.015786
 H        -0.597738         0.584402         0.675321
 H        -0.408924         0.549407        -1.102733
 H        -0.483483        -0.924924        -0.143791
 H         2.732630         1.786567        -1.212310
 H         2.343290         2.231340         0.578226
 H         4.159770         1.540519         1.954632
 H         4.053201        -0.246833        -1.473430
 H         4.174391        -1.556495        -0.078240
 H         0.754849        -2.042090        -1.107810
 H         2.063988        -0.809584         1.966937
