19
Iteration:  3478charge 0 multiplicity 1
 C        -0.155932         0.387337        -0.102992
 C         1.348780         0.194399        -0.114350
 C         2.368623         1.368298        -0.104658
 C         3.368450         0.383895         0.561341
 O         4.561633         0.758945         1.263735
 C         3.692501        -0.593809        -0.585925
 C         2.246938        -1.117880        -0.403798
 O         1.898087        -2.397849        -0.886076
 C         2.187351        -0.529005         1.028508
 H        -0.304356         1.287600         0.599281
 H        -0.282990         0.947891        -1.089175
 H        -0.895542        -0.375949        -0.128183
 H         2.571024         1.950741        -0.986459
 H         1.765165         2.107596         0.680841
 H         4.341562         1.574917         1.873234
 H         3.772170        -0.354202        -1.664626
 H         4.457776        -1.371214        -0.362543
 H         0.968333        -2.374883        -1.242506
 H         1.899046        -0.877346         2.056413
