19
Iteration:  3022charge 0 multiplicity 1
 C        -0.120755         0.303017        -0.253771
 C         1.297623         0.216329        -0.021998
 C         2.327775         1.406073         0.002731
 C         3.371818         0.424163         0.508859
 O         4.601915         0.689556         1.245483
 C         3.722080        -0.579077        -0.664616
 C         2.239703        -1.036761        -0.406815
 O         1.787148        -2.308800        -0.715473
 C         2.191893        -0.518782         0.959932
 H        -0.644209         0.620111         0.654006
 H        -0.390127         0.739036        -1.201188
 H        -0.513592        -0.725320        -0.360639
 H         2.569152         1.839991        -0.999838
 H         2.108002         2.212046         0.753927
 H         4.362641         1.271229         2.007985
 H         3.958375        -0.129749        -1.606732
 H         4.356415        -1.369389        -0.236377
 H         1.917510        -2.468089        -1.651553
 H         2.006261        -1.237292         1.791073
