19
Iteration:  3767charge 0 multiplicity 1
 C        -0.043116         0.374319        -0.324633
 C         1.399095         0.176688        -0.047309
 C         2.392638         1.377986        -0.055175
 C         3.411322         0.430022         0.433528
 O         4.483564         0.765481         1.271039
 C         3.691857        -0.572725        -0.631253
 C         2.275908        -1.126680        -0.339696
 O         1.743147        -2.330305        -0.727858
 C         2.199975        -0.599369         1.035754
 H        -0.407432         1.195044         0.299501
 H        -0.394312         0.395165        -1.364377
 H        -0.521443        -0.492430         0.263154
 H         2.684520         1.956473        -0.889186
 H         2.159388         2.049932         0.855682
 H         4.000278         1.281825         1.895380
 H         3.689124         0.040297        -1.590063
 H         4.575654        -1.214278        -0.327638
 H         1.162630        -2.252001        -1.504154
 H         1.813540        -1.227602         1.936118
