19
Iteration:  1512charge 0 multiplicity 1
 C        -0.097691         0.111130        -0.321528
 C         1.347100         0.247076         0.007401
 C         2.436533         1.406503         0.064898
 C         3.439427         0.374873         0.515506
 O         4.595731         0.671849         1.171280
 C         3.620022        -0.521532        -0.649872
 C         2.240784        -1.071539        -0.289664
 O         1.797402        -2.154105        -0.926520
 C         2.125306        -0.539459         1.099958
 H        -0.727551         0.758793         0.218134
 H        -0.426523         0.386171        -1.320940
 H        -0.269290        -0.968533        -0.088138
 H         2.701737         1.947756        -0.839206
 H         2.153655         2.072030         0.960129
 H         4.170173         1.396203         1.572179
 H         3.871537        -0.020578        -1.625928
 H         4.450972        -1.200080        -0.411915
 H         0.995174        -2.379091        -0.395211
 H         1.776613        -0.937078         2.006301
