19
Iteration:  4303
 C        -0.054054         0.231956        -0.204231
 C         1.383860         0.117295        -0.062843
 C         2.399607         1.389253        -0.099802
 C         3.380294         0.401743         0.595968
 O         4.538909         0.917842         1.182734
 C         3.694896        -0.678686        -0.453481
 C         2.278667        -1.128728        -0.338791
 O         1.679194        -2.210832        -0.960687
 C         2.209067        -0.549176         1.014098
 H        -0.452900         1.056979         0.360463
 H        -0.526911         0.244264        -1.188745
 H        -0.718586        -0.603451         0.309297
 H         2.459197         1.679609        -1.164997
 H         2.221496         2.247031         0.534994
 H         4.641440         0.544342         2.148684
 H         4.147007        -0.229928        -1.381779
 H         4.481916        -1.364778         0.050406
 H         1.032720        -1.874479        -1.587796
 H         2.034338        -0.986313         2.066833
