19
Iteration:  4982charge 0 multiplicity 1
 C        -0.134519         0.381967        -0.045493
 C         1.345111         0.115278        -0.108260
 C         2.301232         1.341441        -0.070340
 C         3.353802         0.343842         0.562670
 O         4.367891         0.894001         1.259872
 C         3.777213        -0.600966        -0.551233
 C         2.331079        -1.050372        -0.435305
 O         1.910205        -2.301566        -0.914613
 C         2.180667        -0.603174         0.995389
 H        -0.341022         0.893287         0.933337
 H        -0.369103         1.143440        -0.851112
 H        -0.724078        -0.474323        -0.178951
 H         2.477471         1.915253        -0.932305
 H         2.125081         2.062349         0.758852
 H         5.024865         0.203960         1.495723
 H         4.019565        -0.055026        -1.522685
 H         4.536416        -1.415488        -0.495065
 H         1.293822        -2.121054        -1.662687
 H         1.965901        -1.340612         1.879624
