19
Iteration:   717
 C        -0.050768         0.132755        -0.031436
 C         1.438023         0.180160         0.062856
 C         2.299012         1.320168        -0.018068
 C         3.461333         0.480767         0.437729
 O         4.374753         0.802993         1.437107
 C         3.720516        -0.503239        -0.844332
 C         2.288822        -1.043571        -0.418134
 O         1.600311        -2.163553        -1.000264
 C         2.385770        -0.556285         1.004082
 H        -0.548396         0.881451         0.605874
 H        -0.436488         0.384507        -1.038792
 H        -0.412334        -0.843142         0.368475
 H         2.395821         1.793883        -1.022325
 H         2.027419         2.144672         0.645852
 H         4.555156        -0.079905         1.762212
 H         3.786588        -0.096819        -1.886799
 H         4.483603        -1.234722        -0.838796
 H         2.077936        -2.930660        -0.699961
 H         2.264824        -0.939538         1.919066
