19
Iteration:   613
 C        -0.089904         0.202680        -0.096886
 C         1.426610         0.059730        -0.012806
 C         2.466060         1.233143         0.027717
 C         3.462084         0.357151         0.541947
 O         4.369263         1.067141         1.269609
 C         3.641332        -0.574252        -0.747290
 C         2.288593        -1.086684        -0.389890
 O         1.641536        -2.080412        -1.024251
 C         2.279813        -0.687599         1.097738
 H        -0.373248         0.693952         0.886811
 H        -0.368937         0.922117        -0.952169
 H        -0.704102        -0.764410        -0.292835
 H         2.764253         1.683299        -0.954286
 H         2.247363         2.002254         0.871189
 H         5.189587         0.499854         1.481896
 H         3.597835        -0.020792        -1.709471
 H         4.558356        -1.337337        -0.696441
 H         1.658732        -2.863301        -0.478466
 H         1.868777        -1.212034         1.983199
