19
Iteration:  4057
 C        -0.040698         0.269865        -0.237035
 C         1.417168         0.250658        -0.127131
 C         2.404218         1.419913        -0.070138
 C         3.379358         0.405419         0.529923
 O         4.417774         0.719471         1.417796
 C         3.648455        -0.624970        -0.692781
 C         2.195787        -1.043488        -0.419314
 O         1.832506        -2.318882        -0.753298
 C         2.180064        -0.490505         0.978204
 H        -0.658551         1.025378         0.273822
 H        -0.393663         0.409120        -1.283912
 H        -0.418474        -0.672368         0.050648
 H         2.708920         1.954390        -0.946401
 H         2.199979         2.111131         0.706202
 H         5.136690         1.168201         0.952843
 H         4.033986        -0.268370        -1.708961
 H         4.312501        -1.467492        -0.361497
 H         0.927299        -2.610148        -0.655464
 H         2.247046        -0.877609         1.926091
