19
Iteration:  2871
 C        -0.122615         0.182079        -0.268745
 C         1.345366         0.203440         0.027308
 C         2.369339         1.413342         0.035656
 C         3.410779         0.404984         0.502879
 O         4.513631         0.774129         1.371166
 C         3.703723        -0.608137        -0.748080
 C         2.294535        -1.015813        -0.463605
 O         1.680353        -2.280223        -0.710439
 C         2.262284        -0.575807         0.945600
 H        -0.775090         0.761972         0.416333
 H        -0.248030         0.670113        -1.330117
 H        -0.469516        -0.888764        -0.366928
 H         2.500753         2.073555        -0.917935
 H         2.148630         2.034660         0.874780
 H         4.941556         1.652478         1.282361
 H         4.118624         0.018817        -1.630662
 H         4.481016        -1.352505        -0.399139
 H         1.309457        -2.458480        -1.575025
 H         2.039864        -1.042558         1.833970
