19
Iteration:  1541charge 0 multiplicity 1
 C         0.020280         0.139587        -0.285340
 C         1.427527         0.166082         0.042654
 C         2.331857         1.377128        -0.040528
 C         3.473292         0.426772         0.498817
 O         4.582755         0.842689         1.375961
 C         3.668368        -0.592006        -0.644282
 C         2.232603        -1.105197        -0.390993
 O         1.468461        -2.132075        -0.996333
 C         2.359975        -0.601437         1.052100
 H        -0.685925         0.775378         0.380552
 H        -0.093778         0.399212        -1.367799
 H        -0.422230        -0.859018        -0.252217
 H         2.475439         1.902376        -1.060699
 H         1.914334         2.101538         0.626618
 H         4.069748         1.477342         1.932874
 H         3.949138        -0.197512        -1.630147
 H         4.334844        -1.333556        -0.172497
 H         1.457278        -2.842390        -0.358275
 H         2.329752        -1.092256         2.151147
