19
Iteration:  4230
 C        -0.077640         0.248942        -0.273860
 C         1.393829         0.190770        -0.131989
 C         2.337820         1.434848        -0.077048
 C         3.426054         0.407844         0.533564
 O         4.567193         0.829018         1.415743
 C         3.732119        -0.570661        -0.620283
 C         2.353679        -1.094145        -0.392605
 O         1.632051        -2.368633        -0.844208
 C         2.150127        -0.457182         0.948746
 H        -0.505547         0.837827         0.523434
 H        -0.482774         0.625109        -1.226584
 H        -0.711860        -0.614523        -0.204710
 H         2.544340         1.996974        -0.984895
 H         1.850146         2.042898         0.777057
 H         5.399314         0.331007         1.197801
 H         3.880054        -0.160984        -1.609528
 H         4.294587        -1.427685        -0.276892
 H         1.043134        -2.521037        -0.060508
 H         2.025861        -0.971013         1.998365
