19
Iteration:   424charge 0 multiplicity 1
 C        -0.127385         0.121969        -0.013873
 C         1.342636         0.191212        -0.025262
 C         2.357425         1.504118        -0.118184
 C         3.302252         0.465261         0.459440
 O         4.473467         0.638514         1.341042
 C         3.701431        -0.523584        -0.687685
 C         2.304137        -0.985659        -0.404924
 O         1.741654        -2.168572        -0.896339
 C         2.249995        -0.536610         0.968975
 H        -0.667799         0.438956         0.878700
 H        -0.573148         0.839519        -0.750539
 H        -0.306101        -0.936683        -0.277489
 H         2.621792         1.787595        -1.106324
 H         1.909100         2.230874         0.604170
 H         5.180102         0.163675         0.936053
 H         4.048025        -0.286646        -1.631270
 H         4.446733        -1.214070        -0.235817
 H         2.339378        -2.857254        -0.546025
 H         2.297536        -1.088197         1.987902
