19
Iteration:  4535
 C        -0.099162         0.389374        -0.221448
 C         1.380464         0.126723        -0.005101
 C         2.289553         1.413463         0.041284
 C         3.411292         0.436165         0.578752
 O         4.564107         0.805367         1.235232
 C         3.669636        -0.554311        -0.644649
 C         2.164724        -1.109203        -0.417118
 O         1.836607        -2.395250        -0.880466
 C         2.249522        -0.652763         1.022485
 H        -0.399747         1.044086         0.610751
 H        -0.262649         0.921706        -1.216326
 H        -0.545937        -0.601922        -0.231051
 H         2.375845         1.921866        -0.982208
 H         1.833943         2.295958         0.653346
 H         4.375357         1.703345         1.751809
 H         4.063954        -0.279428        -1.555523
 H         4.223327        -1.304065        -0.114061
 H         1.576748        -2.369952        -1.805791
 H         1.876962        -1.072813         2.082156
