19
Iteration:  4181
 C        -0.034865         0.258272        -0.283160
 C         1.427871         0.209576        -0.031560
 C         2.373226         1.445978        -0.139642
 C         3.358284         0.385157         0.494502
 O         4.486257         0.906175         1.342111
 C         3.715869        -0.706176        -0.603006
 C         2.236130        -1.137254        -0.333595
 O         1.622361        -2.258558        -0.885648
 C         2.211581        -0.483034         1.115698
 H        -0.711410         0.621800         0.512243
 H        -0.301378         0.871021        -1.148016
 H        -0.525842        -0.700234        -0.592113
 H         2.695289         1.792832        -1.127649
 H         2.163569         2.189359         0.573474
 H         5.030313         0.144529         1.649653
 H         3.998696        -0.100447        -1.520966
 H         4.529095        -1.485730        -0.287161
 H         2.245334        -2.986482        -0.908565
 H         1.984495        -0.941091         2.036212
