19
Iteration:  2251charge 0 multiplicity 1
 C        -0.104680         0.360029        -0.231239
 C         1.385685         0.174004        -0.056024
 C         2.418686         1.333438        -0.071997
 C         3.451979         0.351368         0.556150
 O         4.386604         0.990297         1.380020
 C         3.737845        -0.593614        -0.655903
 C         2.313442        -1.147700        -0.429421
 O         1.686459        -2.322514        -0.881406
 C         2.204184        -0.575613         0.952523
 H        -0.458162         0.754206         0.709242
 H        -0.486477         1.125953        -0.984271
 H        -0.514004        -0.683694        -0.284337
 H         2.696860         1.916655        -1.022665
 H         2.164962         2.148095         0.701641
 H         5.143016         0.347567         1.626306
 H         3.887282        -0.289394        -1.704579
 H         4.486724        -1.465065        -0.489131
 H         1.407853        -2.801308        -0.095737
 H         1.925933        -1.126202         1.910311
