19
Iteration:   873
 C        -0.080686         0.198508        -0.031634
 C         1.400373         0.169674         0.019278
 C         2.257179         1.381542         0.085345
 C         3.411572         0.442661         0.464435
 O         4.514830         0.852692         1.369625
 C         3.673764        -0.494460        -0.748749
 C         2.261878        -1.060395        -0.499101
 O         1.703651        -2.229872        -1.023621
 C         2.278637        -0.606140         0.933395
 H        -0.457490         0.841112         0.753021
 H        -0.499825         0.381331        -1.043058
 H        -0.494031        -0.806549         0.192532
 H         2.273646         2.105886        -0.728156
 H         2.020800         1.915483         1.115980
 H         5.106469         0.152514         1.118478
 H         4.032530         0.036180        -1.655220
 H         4.324667        -1.358272        -0.472679
 H         1.927882        -2.895141        -0.311440
 H         2.147017        -1.274893         1.926543
