19
Iteration:  4617
 C        -0.134516         0.023922        -0.183263
 C         1.365508         0.220908        -0.136312
 C         2.372485         1.480443        -0.020073
 C         3.434307         0.407940         0.541921
 O         4.463458         0.690977         1.306527
 C         3.821394        -0.628815        -0.647434
 C         2.328942        -1.014883        -0.394805
 O         1.642933        -2.163366        -0.801928
 C         2.246588        -0.491454         0.988014
 H        -0.516135         0.455062         0.762036
 H        -0.606216         0.527713        -1.025571
 H        -0.462903        -1.071172        -0.146159
 H         2.635948         1.992691        -0.935321
 H         2.191629         2.122099         0.938902
 H         4.505573         1.552135         1.757620
 H         3.920603        -0.166783        -1.696074
 H         4.536349        -1.502648        -0.472701
 H         1.369772        -2.042518        -1.737287
 H         1.821826        -0.860481         1.825885
