19
Iteration:  2572
 C        -0.058521         0.121158        -0.220300
 C         1.434008         0.215107         0.019010
 C         2.374994         1.503938        -0.018121
 C         3.404513         0.388903         0.515516
 O         4.424912         0.818120         1.378506
 C         3.676743        -0.555898        -0.664507
 C         2.232797        -1.052722        -0.418768
 O         1.717601        -2.274719        -0.869518
 C         2.239415        -0.541956         1.043946
 H        -0.663412         0.953364         0.191346
 H        -0.201767         0.004099        -1.392899
 H        -0.393650        -0.804490         0.196876
 H         2.652299         1.948180        -1.081326
 H         2.188858         2.297018         0.688959
 H         5.281587         0.290021         1.170889
 H         3.883490        -0.185662        -1.738308
 H         4.429008        -1.277979        -0.405874
 H         1.046414        -2.315220        -1.592376
 H         2.158416        -1.112759         1.868742
