19
Iteration:  1046
 C        -0.090179         0.350600        -0.086988
 C         1.341095         0.099356         0.024516
 C         2.281572         1.298878         0.130093
 C         3.448494         0.373755         0.576527
 O         4.473596         0.989538         1.189402
 C         3.653833        -0.571832        -0.648465
 C         2.237247        -1.021015        -0.537967
 O         1.881183        -2.343501        -0.964098
 C         2.221155        -0.664544         1.010612
 H        -0.438456         1.105067         0.599372
 H        -0.245268         0.906585        -1.039639
 H        -0.693614        -0.578253        -0.023752
 H         2.536821         2.122360        -0.752950
 H         1.948307         1.859864         0.983052
 H         5.191790         0.308890         1.436146
 H         4.036032        -0.092424        -1.586352
 H         4.328871        -1.409516        -0.335837
 H         0.960134        -2.288896        -1.233682
 H         1.898344        -1.224189         1.841845
