19
Iteration:   835
 C        -0.076128         0.017106        -0.222241
 C         1.385021         0.140641        -0.025471
 C         2.394569         1.358224         0.091381
 C         3.458738         0.403084         0.563940
 O         4.499491         0.842279         1.432365
 C         3.587482        -0.398965        -0.864598
 C         2.249226        -1.005098        -0.424418
 O         1.570839        -2.117665        -0.880477
 C         2.376709        -0.643647         0.983726
 H        -0.628613         0.461054         0.640981
 H        -0.391055         0.610601        -1.069608
 H        -0.329274        -1.034052        -0.262682
 H         2.390751         2.155332        -0.684028
 H         2.058801         1.894980         0.918210
 H         5.367799         0.572777         0.977149
 H         3.708461         0.129873        -1.847840
 H         4.373536        -1.175352        -0.856926
 H         1.798780        -2.996395        -0.527207
 H         2.323815        -1.229865         1.777541
