19
Iteration:  4278charge 0 multiplicity 1
 C        -0.075468         0.307694        -0.279926
 C         1.353448         0.136634         0.074026
 C         2.451114         1.236351        -0.025600
 C         3.490627         0.359709         0.550839
 O         4.508171         1.080396         1.272666
 C         3.700545        -0.765172        -0.632946
 C         2.163600        -1.054736        -0.319194
 O         1.736562        -2.248606        -1.004831
 C         2.193050        -0.516770         1.135627
 H        -0.623656         1.185567         0.158842
 H        -0.242735         0.258485        -1.366580
 H        -0.739256        -0.482746         0.069907
 H         2.564216         1.587425        -1.105490
 H         2.073225         2.043799         0.610125
 H         5.044172         0.408914         1.812546
 H         3.819154        -0.356402        -1.616710
 H         4.430252        -1.478531        -0.387892
 H         0.822058        -2.324468        -1.280663
 H         1.933341        -1.156762         1.907910
