19
Iteration:  4850charge 0 multiplicity 1
 C        -0.139638         0.323731        -0.135439
 C         1.352882         0.104704        -0.058348
 C         2.310755         1.327790         0.006826
 C         3.400244         0.390271         0.568374
 O         4.463020         0.867803         1.275295
 C         3.726636        -0.597114        -0.593669
 C         2.291642        -1.099162        -0.465183
 O         1.845592        -2.255386        -0.971053
 C         2.280035        -0.624592         1.027668
 H        -0.365784         1.237927         0.492302
 H        -0.521664         0.573626        -1.172114
 H        -0.724157        -0.473883         0.338688
 H         2.611468         1.743006        -0.981266
 H         1.953546         2.112203         0.752496
 H         4.275867         0.969810         2.154954
 H         3.951420        -0.234988        -1.518180
 H         4.376471        -1.415240        -0.258990
 H         1.282794        -1.951630        -1.722766
 H         1.874610        -0.846145         1.957336
