19
Iteration:  3910
 C        -0.116232         0.248359        -0.331314
 C         1.376630         0.148686        -0.104736
 C         2.430274         1.441945         0.022546
 C         3.403480         0.391986         0.466456
 O         4.561779         0.757029         1.402460
 C         3.640417        -0.539159        -0.760164
 C         2.295901        -1.093491        -0.372413
 O         1.631936        -2.322550        -0.681783
 C         2.288418        -0.539634         0.971555
 H        -0.486462         1.115892         0.210913
 H        -0.339037         0.373098        -1.414341
 H        -0.772096        -0.580931         0.123400
 H         2.626569         1.842002        -0.905954
 H         2.131934         2.208779         0.790629
 H         4.131970         1.488132         1.897822
 H         3.710585         0.052180        -1.690518
 H         4.330053        -1.351508        -0.509035
 H         1.995666        -2.570146        -1.558975
 H         2.061267        -0.815565         1.949413
