19
Iteration:  1810charge 0 multiplicity 1
 C        -0.067393         0.289752        -0.163954
 C         1.407617         0.216880        -0.044665
 C         2.415175         1.318344        -0.096661
 C         3.397356         0.345727         0.525338
 O         4.490174         0.860790         1.304344
 C         3.679432        -0.641666        -0.642743
 C         2.247465        -1.056735        -0.408224
 O         1.751358        -2.247609        -0.837540
 C         2.212433        -0.586601         1.008784
 H        -0.537490         0.605902         0.742297
 H        -0.302241         1.104655        -0.865901
 H        -0.489732        -0.748214        -0.437202
 H         2.731116         1.722681        -1.064647
 H         2.154159         2.187776         0.565990
 H         4.237894         0.980559         2.293664
 H         3.999619        -0.388380        -1.646040
 H         4.240902        -1.514343        -0.471063
 H         1.042742        -1.909999        -1.446381
 H         1.873873        -1.053928         1.845113
