19
Iteration:  3728charge 0 multiplicity 1
 C        -0.076857         0.291548        -0.342845
 C         1.404856         0.134668        -0.006020
 C         2.344074         1.359755        -0.028188
 C         3.465491         0.461290         0.534976
 O         4.622946         0.793652         1.191350
 C         3.604540        -0.580877        -0.530085
 C         2.161522        -1.051372        -0.364506
 O         1.662526        -2.291560        -0.892808
 C         2.230940        -0.561958         1.156364
 H        -0.715070         1.117631         0.057532
 H        -0.181112         0.383086        -1.479146
 H        -0.557752        -0.598993         0.078946
 H         2.465876         1.885697        -1.068058
 H         2.047823         2.036136         0.725485
 H         4.454436         1.402221         1.955456
 H         4.044106        -0.350235        -1.487246
 H         4.177894        -1.389962        -0.058343
 H         2.462335        -2.588939        -1.367957
 H         1.931827        -1.140778         1.948474
