19
Iteration:  4749
 C        -0.084462        -0.041627        -0.328879
 C         1.410659         0.203214        -0.000926
 C         2.340328         1.391682         0.031304
 C         3.444448         0.444682         0.496055
 O         4.497029         0.630258         1.319094
 C         3.666585        -0.539061        -0.688727
 C         2.311011        -0.985070        -0.365953
 O         1.646501        -2.109852        -0.853364
 C         2.290969        -0.449150         1.089016
 H        -0.731388         0.183577         0.531049
 H        -0.612457         0.547686        -1.081568
 H        -0.347855        -1.177403        -0.396280
 H         2.421421         1.885973        -0.943775
 H         1.953296         2.271898         0.690248
 H         4.666611         1.611362         1.588188
 H         4.042742        -0.081550        -1.491247
 H         4.376000        -1.325404        -0.314840
 H         1.426296        -2.032783        -1.793967
 H         2.269701        -1.079970         2.101429
