19
Iteration:  1928charge 0 multiplicity 1
 C        -0.103481         0.291994        -0.103592
 C         1.398789         0.251650        -0.127845
 C         2.376459         1.438586        -0.113254
 C         3.367180         0.368742         0.524509
 O         4.407329         0.644779         1.369293
 C         3.766115        -0.582337        -0.661062
 C         2.335839        -1.060969        -0.464384
 O         1.789735        -2.331223        -0.847910
 C         2.192563        -0.527897         0.947341
 H        -0.296023         1.384279         0.047027
 H        -0.584054         0.021744        -1.012608
 H        -0.354381        -0.351341         0.760793
 H         2.748520         2.178138        -0.961002
 H         2.165857         2.069740         0.765456
 H         4.223477         1.426415         1.828734
 H         3.957762        -0.172011        -1.695904
 H         4.570622        -1.239520        -0.346020
 H         0.855500        -2.374633        -0.553648
 H         1.876312        -0.704197         1.915811
