19
Iteration:    80
 C        -0.041821         0.181035        -0.008024
 C         1.410052         0.182511         0.146335
 C         2.282119         1.417233        -0.006261
 C         3.356542         0.397014         0.539674
 O         4.522503         0.821288         1.247164
 C         3.625556        -0.570648        -0.714210
 C         2.235712        -1.050876        -0.403649
 O         1.819504        -2.215318        -1.089489
 C         2.242177        -0.639375         1.049536
 H        -0.561496         0.798250         0.734046
 H        -0.208191         0.723114        -0.913092
 H        -0.487856        -0.823653        -0.074935
 H         2.382550         1.780297        -1.083008
 H         2.065221         2.259895         0.597600
 H         5.148097         1.102344         0.586725
 H         3.754283        -0.128528        -1.737729
 H         4.295729        -1.416427        -0.387477
 H         1.187644        -2.627858        -0.489386
 H         1.945686        -0.937987         2.119391
