19
Iteration:  4901
 C        -0.080069        -0.045250        -0.299684
 C         1.389034         0.163914        -0.029140
 C         2.334421         1.521101        -0.052104
 C         3.427382         0.409986         0.553272
 O         4.540962         0.650309         1.410564
 C         3.713089        -0.470709        -0.723323
 C         2.300209        -1.013821        -0.417887
 O         1.538761        -2.145911        -0.826008
 C         2.332883        -0.512042         1.083758
 H        -0.810370         0.559544         0.187296
 H        -0.169564        -0.048948        -1.366976
 H        -0.279513        -1.147090        -0.056336
 H         2.585704         2.027293        -0.963705
 H         1.920324         2.158751         0.737430
 H         4.448792         1.628981         1.630615
 H         4.199502        -0.136066        -1.741968
 H         4.346748        -1.334628        -0.233593
 H         1.484607        -2.008858        -1.799874
 H         2.305170        -0.981194         2.004324
