19
Iteration:  2914charge 0 multiplicity 1
 C        -0.006894         0.175880        -0.207586
 C         1.474332         0.160528         0.086175
 C         2.352537         1.350035        -0.016316
 C         3.418317         0.414792         0.580398
 O         4.580838         0.886841         1.178550
 C         3.671314        -0.605675        -0.521294
 C         2.241696        -1.127879        -0.365929
 O         1.625333        -2.225930        -1.033737
 C         2.158482        -0.578100         1.132718
 H        -0.570443         0.952051         0.363466
 H        -0.129171         0.273038        -1.370743
 H        -0.323136        -0.867607         0.066490
 H         2.653904         1.707239        -1.077180
 H         2.071164         2.140554         0.633326
 H         4.151494         1.638402         1.501600
 H         3.952503        -0.350247        -1.606086
 H         4.392425        -1.386544        -0.137682
 H         1.346613        -1.972130        -1.936273
 H         1.755887        -0.760322         2.109316
