19
Iteration:  3651
 C        -0.110357         0.307176        -0.131425
 C         1.394670         0.224924        -0.016325
 C         2.374486         1.313009        -0.166864
 C         3.472272         0.345079         0.467475
 O         4.419773         0.810092         1.336991
 C         3.799329        -0.609169        -0.649067
 C         2.227846        -1.076715        -0.373378
 O         1.738706        -2.268896        -0.882308
 C         2.271598        -0.539045         1.010366
 H        -0.560206         0.728416         0.814341
 H        -0.427500         0.927693        -1.075488
 H        -0.633968        -0.723876        -0.272359
 H         2.753750         1.745997        -1.166402
 H         2.193963         2.092073         0.503804
 H         3.962063         1.387955         1.900408
 H         4.148007        -0.193540        -1.592096
 H         4.460533        -1.429937        -0.320490
 H         0.803346        -2.398648        -0.675238
 H         1.927639        -0.954813         2.033761
