19
Iteration:  2733
 C         0.022574         0.148153        -0.269805
 C         1.425731         0.183497         0.015753
 C         2.334796         1.323682        -0.005100
 C         3.451416         0.404522         0.513872
 O         4.435630         0.897313         1.273768
 C         3.700561        -0.569022        -0.676404
 C         2.278037        -1.092296        -0.368106
 O         1.623028        -2.175621        -0.817774
 C         2.252658        -0.560303         1.057635
 H        -0.668161         1.005848         0.110240
 H        -0.121794         0.250308        -1.360329
 H        -0.496885        -0.826017         0.035206
 H         2.528050         1.817614        -0.954831
 H         2.102368         2.164686         0.775994
 H         4.798498         0.252590         1.929768
 H         3.953907        -0.170148        -1.697743
 H         4.485385        -1.316603        -0.535417
 H         1.004917        -2.139612        -1.600163
 H         2.197697        -1.208742         1.912609
