19
Iteration:  3072charge 0 multiplicity 1
 C        -0.051464         0.188249        -0.288482
 C         1.472194         0.098211         0.007571
 C         2.463340         1.316845        -0.022586
 C         3.498811         0.379525         0.586301
 O         4.538326         1.017751         1.215961
 C         3.701986        -0.747542        -0.626171
 C         2.225387        -1.126232        -0.295571
 O         1.613137        -2.148877        -0.948718
 C         2.187948        -0.629875         1.153442
 H        -0.527161         0.865322         0.484302
 H        -0.180864         0.609501        -1.295339
 H        -0.682180        -0.676468        -0.267321
 H         2.495018         1.816367        -0.963584
 H         1.939283         1.968215         0.660740
 H         4.060871         1.733815         1.586292
 H         3.772222        -0.327745        -1.640903
 H         4.397007        -1.541487        -0.304876
 H         0.928658        -1.798799        -1.573773
 H         1.721569        -0.876594         1.986677
