19
Iteration:  2445
 C        -0.059841         0.119942        -0.146101
 C         1.469774         0.170164        -0.064830
 C         2.361005         1.362539        -0.121217
 C         3.439861         0.385574         0.493307
 O         4.424232         0.897039         1.324427
 C         3.747108        -0.706099        -0.540327
 C         2.254630        -1.046239        -0.387434
 O         1.695653        -2.158426        -0.940853
 C         2.181489        -0.471098         1.046817
 H        -0.477198         0.265098         0.912650
 H        -0.606695         0.766332        -0.781841
 H        -0.280356        -0.970825        -0.414308
 H         2.502965         1.913747        -1.102461
 H         1.906901         2.039811         0.763524
 H         5.250886         0.386505         1.130560
 H         4.058832        -0.437665        -1.502960
 H         4.491081        -1.353296        -0.012042
 H         0.867900        -1.856623        -1.305355
 H         1.952749        -0.912330         1.929714
