19
Iteration:  2267charge 0 multiplicity 1
 C        -0.093789         0.268249        -0.153240
 C         1.452798         0.161757        -0.078041
 C         2.402478         1.285495        -0.085328
 C         3.423290         0.314847         0.533684
 O         4.390904         0.988242         1.287180
 C         3.760381        -0.701602        -0.642366
 C         2.258215        -1.070856        -0.362949
 O         1.726614        -2.202186        -0.957690
 C         2.220096        -0.551399         1.051390
 H        -0.564242         0.694499         0.762543
 H        -0.212844         0.823700        -1.048317
 H        -0.710507        -0.574161        -0.371320
 H         2.672214         1.621608        -1.082376
 H         2.098628         2.136612         0.550798
 H         4.547347         0.486886         2.083161
 H         4.094992        -0.078161        -1.472002
 H         4.471295        -1.414978        -0.381355
 H         1.020352        -2.494668        -0.389275
 H         1.936524        -0.823255         2.027458
