19
Iteration:  1712
 C        -0.080490         0.190091        -0.289786
 C         1.382706         0.209524         0.098069
 C         2.385417         1.336316        -0.063957
 C         3.411769         0.388628         0.598473
 O         4.542424         0.879261         1.235560
 C         3.676308        -0.588868        -0.555325
 C         2.244698        -1.072852        -0.379965
 O         1.701050        -2.212059        -0.975133
 C         2.181967        -0.576952         1.123684
 H        -0.564056         0.992774         0.174797
 H        -0.101070         0.349153        -1.386978
 H        -0.749807        -0.669518        -0.005614
 H         2.500226         1.827275        -1.031733
 H         2.198263         2.261335         0.623609
 H         5.175087         0.072117         1.340944
 H         4.214615        -0.312120        -1.479682
 H         4.332626        -1.401133        -0.167862
 H         1.005213        -1.860437        -1.579869
 H         1.977912        -1.132435         2.093957
