19
Iteration:  1761
 C        -0.028692         0.292024        -0.077848
 C         1.449082         0.184890        -0.135603
 C         2.369239         1.465782        -0.031322
 C         3.364342         0.407015         0.483707
 O         4.387088         0.689519         1.416290
 C         3.725180        -0.627494        -0.657958
 C         2.277334        -1.123608        -0.524737
 O         1.685905        -2.273944        -0.772255
 C         2.245832        -0.519936         0.922574
 H        -0.399041         1.175714         0.653429
 H        -0.524122         0.691012        -0.994991
 H        -0.509698        -0.583971         0.345269
 H         2.686317         2.005918        -0.951548
 H         2.019470         2.198060         0.631401
 H         4.585787         1.584261         1.266740
 H         4.120064        -0.375896        -1.666445
 H         4.555052        -1.344851        -0.507638
 H         1.994172        -2.617394        -1.618490
 H         1.784572        -0.908940         1.916919
