19
Iteration:  1553
 C        -0.093858         0.201020        -0.267440
 C         1.443398         0.093617         0.046483
 C         2.342830         1.317448        -0.038568
 C         3.442920         0.413275         0.492581
 O         4.527983         0.897176         1.352579
 C         3.777813        -0.616378        -0.630243
 C         2.296521        -1.065574        -0.417350
 O         1.428551        -2.136369        -0.944871
 C         2.346445        -0.597160         1.018176
 H        -0.512054         0.981812         0.464319
 H        -0.292170         0.646019        -1.259726
 H        -0.541352        -0.752195        -0.134202
 H         2.548446         1.729028        -1.101312
 H         2.245287         2.093996         0.712215
 H         4.204776         1.435268         2.154526
 H         4.264549        -0.209875        -1.515362
 H         4.512300        -1.355174        -0.284389
 H         1.890767        -3.012288        -0.804889
 H         2.008507        -1.251458         1.915681
