19
Iteration:   334charge 0 multiplicity 1
 C        -0.213848         0.068580        -0.155553
 C         1.360147         0.107499         0.039253
 C         2.287165         1.362223         0.002737
 C         3.487483         0.402167         0.538241
 O         4.619053         0.783279         1.249690
 C         3.678808        -0.569287        -0.615139
 C         2.193575        -1.001639        -0.307776
 O         1.640350        -2.042596        -1.036139
 C         2.313111        -0.588939         1.128794
 H        -0.628093         1.023641         0.133947
 H        -0.408264         0.258868        -1.210821
 H        -0.659646        -0.834831         0.140416
 H         2.508413         1.718464        -0.992219
 H         2.168519         2.186965         0.662978
 H         5.158034         1.321368         0.619335
 H         3.880536        -0.231043        -1.548765
 H         4.390241        -1.350707        -0.295138
 H         2.390500        -2.660368        -1.271911
 H         2.079076        -1.217185         1.903802
