19
Iteration:  1879charge 0 multiplicity 1
 C        -0.067997         0.199189        -0.318237
 C         1.386885         0.220003         0.103141
 C         2.451707         1.356198         0.019195
 C         3.436648         0.381799         0.550572
 O         4.521765         0.877514         1.191891
 C         3.653305        -0.608960        -0.608182
 C         2.282184        -1.081465        -0.329106
 O         1.657973        -2.213171        -0.972205
 C         2.176547        -0.594385         1.065197
 H        -0.641001         1.065237        -0.031913
 H         0.072070         0.270370        -1.428104
 H        -0.407220        -0.751125         0.021111
 H         2.800608         1.697532        -1.021672
 H         2.321739         2.350996         0.627077
 H         4.398175         0.778544         2.203144
 H         4.019236        -0.185188        -1.551934
 H         4.409088        -1.447155        -0.389446
 H         0.739322        -2.355038        -0.749423
 H         1.895641        -1.090834         2.128698
