19
Iteration:  4576
 C        -0.094986         0.255551        -0.345206
 C         1.428363         0.156439         0.050877
 C         2.329608         1.340252         0.070051
 C         3.440676         0.333445         0.559627
 O         4.573751         0.946718         1.178559
 C         3.688064        -0.626633        -0.645318
 C         2.274748        -1.072195        -0.383687
 O         1.636938        -2.234196        -0.863016
 C         2.261766        -0.669466         1.148163
 H        -0.728389         0.497053         0.482561
 H        -0.321095         1.026864        -1.071641
 H        -0.596179        -0.628119        -0.864149
 H         2.649158         1.730918        -0.926091
 H         2.056768         2.088312         0.748231
 H         4.159927         1.385610         1.921869
 H         3.923255        -0.027439        -1.587439
 H         4.482635        -1.349351        -0.283638
 H         1.494503        -2.086984        -1.824730
 H         1.889026        -1.221487         2.025497
