19
Iteration:   477
 C        -0.057703         0.181614        -0.236204
 C         1.422923         0.135319         0.055951
 C         2.393789         1.367672         0.114450
 C         3.423971         0.340278         0.586239
 O         4.487025         1.022482         1.195204
 C         3.708840        -0.612625        -0.610587
 C         2.263127        -1.047707        -0.431484
 O         1.492735        -2.164141        -0.977712
 C         2.308113        -0.690826         1.040163
 H        -0.481200         0.744570         0.620412
 H        -0.321733         0.591154        -1.263304
 H        -0.517086        -0.807333        -0.210085
 H         2.441467         1.899298        -0.874286
 H         2.045698         2.137160         0.856640
 H         5.352002         0.847608         0.869302
 H         4.037170        -0.008169        -1.509485
 H         4.510002        -1.381939        -0.256761
 H         2.048651        -2.924079        -0.708870
 H         1.953733        -1.477162         1.890436
