19
Iteration:  4070
 C        -0.033868         0.205340        -0.236335
 C         1.422627         0.269743        -0.071766
 C         2.412502         1.518427        -0.092486
 C         3.384588         0.388586         0.503453
 O         4.390300         0.654249         1.358903
 C         3.641544        -0.549710        -0.596034
 C         2.245279        -1.045964        -0.437074
 O         1.811034        -2.377133        -0.798689
 C         2.223894        -0.460039         1.011592
 H        -0.380664         1.047026         0.393716
 H        -0.241473         0.252474        -1.311020
 H        -0.471472        -0.657572         0.180146
 H         2.768947         1.902627        -1.060484
 H         1.912132         2.216423         0.488616
 H         5.207300         0.697358         0.802129
 H         3.903615         0.032157        -1.542635
 H         4.439608        -1.261193        -0.170693
 H         0.905353        -2.357647        -0.394950
 H         1.492180        -0.801665         1.798492
