19
Iteration:   648charge 0 multiplicity 1
 C        -0.096339         0.192397        -0.220834
 C         1.389324         0.103627         0.146425
 C         2.269904         1.331285         0.148947
 C         3.439990         0.533172         0.489978
 O         4.520200         0.964894         1.177516
 C         3.655173        -0.602467        -0.560772
 C         2.235252        -1.080223        -0.404404
 O         1.646809        -2.164916        -1.112720
 C         2.331635        -0.688938         1.079856
 H        -0.710874         0.764569         0.596576
 H        -0.152259         0.859361        -1.141365
 H        -0.633720        -0.729171        -0.392665
 H         2.445312         1.989984        -0.780150
 H         2.098419         2.048868         0.942558
 H         5.272939         0.350516         0.899848
 H         4.114998        -0.456037        -1.593153
 H         4.402482        -1.306626        -0.053249
 H         1.867227        -2.982847        -0.666814
 H         2.229352        -1.362968         2.111702
