19
Iteration:  2715
 C        -0.185941         0.175008        -0.352247
 C         1.348859         0.159371         0.043077
 C         2.413456         1.407450         0.011704
 C         3.438724         0.357508         0.504723
 O         4.517345         0.856296         1.327463
 C         3.679805        -0.540777        -0.768675
 C         2.283241        -1.011980        -0.382869
 O         1.702310        -2.298474        -0.726974
 C         2.325577        -0.569904         0.995777
 H        -0.576134         0.984536         0.206834
 H        -0.373578         0.444899        -1.411873
 H        -0.560928        -0.741587        -0.043617
 H         2.576465         2.149747        -0.814335
 H         2.168792         2.098486         0.753768
 H         4.415960         0.242309         2.114982
 H         3.864537        -0.088074        -1.748481
 H         4.459752        -1.280863        -0.661287
 H         1.197935        -2.081732        -1.571906
 H         1.986647        -0.946345         2.075708
