19
Iteration:  4991charge 0 multiplicity 1
 C        -0.140721         0.352178        -0.070474
 C         1.432514         0.144686        -0.067105
 C         2.354229         1.311829        -0.062461
 C         3.357465         0.351676         0.538274
 O         4.382878         0.899868         1.292241
 C         3.692701        -0.533022        -0.599295
 C         2.317702        -1.092896        -0.465316
 O         1.873082        -2.303884        -0.925083
 C         2.209549        -0.572607         0.991490
 H        -0.393827         0.687576         0.954121
 H        -0.652731         1.027250        -0.767623
 H        -0.674677        -0.558016        -0.104421
 H         2.635584         1.623359        -1.037405
 H         2.163385         2.131143         0.704852
 H         4.777670         0.168465         1.804381
 H         4.019764        -0.047428        -1.610909
 H         4.364448        -1.326372        -0.085950
 H         1.330259        -2.166270        -1.738752
 H         1.969952        -1.187339         1.939714
