19
Iteration:  3210
 C        -0.032079         0.315754        -0.292649
 C         1.414249         0.214430         0.017197
 C         2.348622         1.368152        -0.037798
 C         3.410595         0.350403         0.550209
 O         4.542653         0.904876         1.194788
 C         3.740572        -0.615380        -0.573430
 C         2.295174        -1.093126        -0.346545
 O         1.593807        -2.304978        -0.824836
 C         2.232896        -0.674607         1.080345
 H        -0.644718         0.515897         0.559142
 H        -0.128052         1.017556        -1.191432
 H        -0.276777        -0.764119        -0.678279
 H         2.566554         1.846889        -0.966787
 H         2.078217         2.209302         0.726600
 H         4.185303         1.751290         1.671670
 H         3.882346        -0.274524        -1.621717
 H         4.231341        -1.504704        -0.195379
 H         1.312411        -2.171333        -1.751163
 H         2.006608        -1.189478         1.885508
