19
Iteration:  2792charge 0 multiplicity 1
 C        -0.121588         0.210031        -0.068822
 C         1.386523         0.167288        -0.041062
 C         2.390276         1.404559        -0.085094
 C         3.421495         0.353401         0.555914
 O         4.423554         0.898219         1.295633
 C         3.706908        -0.695526        -0.504453
 C         2.229828        -1.028833        -0.417843
 O         1.788778        -2.220930        -0.953021
 C         2.204543        -0.553833         1.000331
 H        -0.410171         0.907178         0.714658
 H        -0.303215         0.448042        -1.144837
 H        -0.447651        -0.780990         0.124465
 H         2.717352         1.720187        -1.130796
 H         2.131608         2.222120         0.575885
 H         5.231561         0.906237         0.668597
 H         4.032738        -0.367452        -1.550754
 H         4.142941        -1.531556         0.034738
 H         1.478798        -2.216615        -1.852820
 H         1.723357        -0.997092         1.936790
