19
Iteration:  1022
 C        -0.136301         0.285762        -0.214738
 C         1.307137         0.250270         0.039418
 C         2.244193         1.476094         0.227910
 C         3.392958         0.405985         0.539005
 O         4.546237         0.789708         1.113373
 C         3.612886        -0.488844        -0.686228
 C         2.355557        -1.169680        -0.356372
 O         1.927294        -2.316328        -0.999314
 C         2.168481        -0.644589         1.010269
 H        -0.628157         0.945972         0.557505
 H        -0.438724         0.849524        -1.120615
 H        -0.561126        -0.796451        -0.112891
 H         2.610225         2.217022        -0.699450
 H         2.049534         2.174973         1.091153
 H         5.022543         0.063526         1.557362
 H         3.836853        -0.046205        -1.698550
 H         4.469894        -1.201806        -0.457310
 H         1.022733        -2.573800        -0.647511
 H         2.021396        -1.159265         2.100722
