19
Iteration:  2737
 C         0.039552         0.132650        -0.278961
 C         1.419676         0.147452         0.047005
 C         2.346686         1.338385        -0.019643
 C         3.419719         0.398437         0.535675
 O         4.441970         0.925948         1.271511
 C         3.708524        -0.578520        -0.654199
 C         2.274659        -1.052294        -0.361279
 O         1.596450        -2.184484        -0.846539
 C         2.258567        -0.573664         1.043624
 H        -0.441685         0.994004         0.150717
 H        -0.187671         0.281395        -1.355549
 H        -0.318491        -0.770847         0.120832
 H         2.551119         1.967161        -0.919143
 H         2.040163         2.132400         0.590105
 H         4.818714         0.195041         1.771018
 H         3.972839        -0.302342        -1.675696
 H         4.476829        -1.332430        -0.522910
 H         1.028349        -2.088675        -1.609274
 H         2.145881        -1.252377         2.028863
