19
Iteration:   498charge 0 multiplicity 1
 C        -0.078621         0.225843        -0.208012
 C         1.364492         0.060708         0.075934
 C         2.292544         1.238035         0.158847
 C         3.468839         0.361486         0.477104
 O         4.436912         1.057213         1.177020
 C         3.807070        -0.630698        -0.706788
 C         2.345191        -1.047006        -0.393276
 O         1.548196        -2.043721        -0.930007
 C         2.280923        -0.675944         0.993088
 H        -0.471733         1.145656         0.319202
 H        -0.195294         0.449697        -1.304429
 H        -0.705877        -0.630753        -0.049443
 H         2.356908         2.002000        -0.732785
 H         2.061457         1.760082         1.116448
 H         5.099141         0.352868         1.503041
 H         4.417552        -0.382416        -1.697220
 H         4.319022        -1.616708        -0.297764
 H         1.810002        -2.881668        -0.559395
 H         2.085534        -1.356669         2.097115
