19
Iteration:  4393
 C        -0.128266         0.374634        -0.300302
 C         1.404705         0.120820        -0.101157
 C         2.329816         1.388856         0.031351
 C         3.392113         0.454819         0.532348
 O         4.497321         0.832837         1.331192
 C         3.696711        -0.608230        -0.672141
 C         2.252126        -1.155198        -0.372632
 O         1.757199        -2.360061        -0.784251
 C         2.253883        -0.559839         1.086793
 H        -0.532429         0.804356         0.615399
 H        -0.249079         1.069011        -1.168707
 H        -0.654729        -0.604971        -0.565379
 H         2.429671         1.993020        -0.846336
 H         1.924705         2.002373         0.882428
 H         5.142063         1.278572         0.657170
 H         3.996934        -0.260809        -1.723106
 H         4.365590        -1.421082        -0.265462
 H         1.289797        -2.051639        -1.569775
 H         2.116472        -1.144450         1.913154
