19
Iteration:  2097charge 0 multiplicity 1
 C        -0.175455         0.394685        -0.191141
 C         1.375937         0.207442        -0.070399
 C         2.463368         1.357574        -0.119995
 C         3.422085         0.376024         0.508469
 O         4.500885         0.796158         1.288366
 C         3.678568        -0.623431        -0.584289
 C         2.253367        -1.103627        -0.301035
 O         1.795978        -2.264112        -0.949202
 C         2.140415        -0.555630         1.044310
 H        -0.502852         1.141099         0.493587
 H        -0.555866         0.663749        -1.254767
 H        -0.609224        -0.656295         0.059452
 H         2.719234         1.671694        -1.170376
 H         1.938007         2.097228         0.553802
 H         4.336601         1.007734         2.173644
 H         3.817282        -0.270314        -1.567143
 H         4.298422        -1.496644        -0.228852
 H         2.368660        -3.041538        -0.776963
 H         1.856642        -0.836111         1.972044
