19
Iteration:  1597charge 0 multiplicity 1
 C        -0.092621         0.333892        -0.061322
 C         1.410121         0.214737        -0.073909
 C         2.404512         1.445286        -0.045319
 C         3.393577         0.404342         0.522216
 O         4.560635         0.788354         1.310030
 C         3.629335        -0.646282        -0.562081
 C         2.193995        -1.082792        -0.407385
 O         1.820968        -2.427056        -0.981277
 C         2.121609        -0.525585         0.995238
 H        -0.501994         1.092373         0.742841
 H        -0.407346         0.718701        -1.072053
 H        -0.710123        -0.543146         0.108938
 H         2.729622         1.948813        -1.021900
 H         1.901523         2.178637         0.552138
 H         4.354286         1.615577         1.872829
 H         3.935204        -0.426462        -1.603019
 H         4.313072        -1.419843        -0.174716
 H         2.174059        -2.446360        -1.911376
 H         1.698402        -0.806476         1.954640
