19
Iteration:  3957
 C        -0.088588         0.133203        -0.240254
 C         1.412107         0.220956        -0.029171
 C         2.394310         1.508633        -0.118828
 C         3.415360         0.437009         0.543424
 O         4.579338         0.754619         1.219503
 C         3.677451        -0.704690        -0.539826
 C         2.209193        -0.985022        -0.411748
 O         1.670094        -2.271335        -0.814856
 C         2.161045        -0.456502         1.034717
 H        -0.697552         0.653305         0.490360
 H        -0.346694         0.453901        -1.258711
 H        -0.529946        -0.898609        -0.227737
 H         2.748617         1.985141        -0.984497
 H         2.084504         2.191262         0.670055
 H         4.345840         0.916017         2.211777
 H         3.998597        -0.511497        -1.630059
 H         4.246207        -1.432899         0.030336
 H         2.296371        -2.454056        -1.542948
 H         2.004619        -1.046120         2.023713
