19
Iteration:  2801charge 0 multiplicity 1
 C        -0.058828         0.242461        -0.084720
 C         1.388191         0.207770        -0.004433
 C         2.368587         1.364465        -0.142152
 C         3.368558         0.422232         0.524816
 O         4.437039         0.835261         1.353985
 C         3.703164        -0.623888        -0.506286
 C         2.195065        -1.031506        -0.439426
 O         1.796119        -2.302632        -0.912817
 C         2.249375        -0.576572         0.947022
 H        -0.589485         0.902705         0.767439
 H        -0.579593         0.650590        -1.044985
 H        -0.535551        -0.724626         0.090617
 H         2.725175         1.786842        -1.118962
 H         1.934603         2.149704         0.564003
 H         5.273712         0.903882         0.749802
 H         4.013373        -0.449894        -1.626570
 H         4.330456        -1.435892        -0.123124
 H         1.577901        -1.987842        -1.789742
 H         1.862292        -0.951259         2.060746
