19
Iteration:  2128charge 0 multiplicity 1
 C        -0.029914         0.264593        -0.196201
 C         1.421386         0.133850        -0.048286
 C         2.425394         1.290542        -0.084761
 C         3.458583         0.383678         0.533045
 O         4.448373         0.916901         1.321670
 C         3.800684        -0.668812        -0.491687
 C         2.303171        -1.072440        -0.452594
 O         1.524198        -2.192378        -1.032941
 C         2.229267        -0.561559         1.053326
 H        -0.239889         1.117452         0.311633
 H        -0.327748         0.201328        -1.201153
 H        -0.514392        -0.491467         0.430386
 H         2.449375         1.878956        -1.077810
 H         1.957356         2.019350         0.551100
 H         4.094034         1.785102         1.753757
 H         4.258354        -0.338046        -1.437279
 H         4.351328        -1.578996        -0.114580
 H         1.412316        -2.908375        -0.381075
 H         2.008160        -1.085517         1.899200
