19
Iteration:  3677charge 0 multiplicity 1
 C        -0.005877         0.092641        -0.209949
 C         1.437450         0.186967        -0.034764
 C         2.428384         1.429183        -0.100125
 C         3.448439         0.438166         0.530575
 O         4.506173         0.892975         1.369459
 C         3.706687        -0.729565        -0.651011
 C         2.180219        -1.094894        -0.394105
 O         1.584547        -2.198104        -0.959728
 C         2.267180        -0.504555         1.027390
 H        -0.541787         0.555559         0.652844
 H        -0.264582         0.661530        -1.093421
 H        -0.402383        -0.856523        -0.130569
 H         2.935076         1.712089        -0.957942
 H         2.050177         2.308462         0.523244
 H         4.222366         1.627634         1.833367
 H         4.041422        -0.447212        -1.688487
 H         4.296693        -1.477492        -0.121637
 H         0.919732        -2.573357        -0.385032
 H         2.057558        -1.013281         1.906937
