19
Iteration:  4659charge 0 multiplicity 1
 C        -0.153795         0.349791        -0.045193
 C         1.394073         0.161229        -0.004599
 C         2.368396         1.375532        -0.099600
 C         3.372928         0.403624         0.602411
 O         4.497789         0.832227         1.304137
 C         3.689669        -0.573319        -0.670503
 C         2.257936        -1.080141        -0.464798
 O         1.816195        -2.357061        -0.918189
 C         2.221598        -0.614783         0.965688
 H        -0.449057         1.373958         0.324706
 H        -0.211003         0.372087        -1.141037
 H        -0.688800        -0.429034         0.507044
 H         2.592652         1.777806        -1.107151
 H         1.890332         2.263470         0.520057
 H         4.141243         0.972409         2.293669
 H         4.118949        -0.050318        -1.427171
 H         4.342867        -1.362066        -0.394213
 H         1.723478        -2.296178        -1.875322
 H         2.023622        -1.068026         1.841196
