19
Iteration:  4743
 C        -0.090031        -0.039458        -0.314649
 C         1.351586         0.185627         0.009050
 C         2.366762         1.325067         0.029626
 C         3.421235         0.431653         0.572956
 O         4.527119         0.669571         1.307931
 C         3.635631        -0.566221        -0.703700
 C         2.348318        -0.989879        -0.370062
 O         1.677177        -2.070288        -0.844381
 C         2.255347        -0.470603         1.076995
 H        -0.660271         0.427069         0.529800
 H        -0.476132         0.455337        -1.247291
 H        -0.386604        -1.017348        -0.425108
 H         2.436632         1.766634        -1.009235
 H         2.128762         2.114248         0.678522
 H         4.560794         1.538402         1.559615
 H         3.933876         0.064099        -1.747928
 H         4.485232        -1.195705        -0.433166
 H         1.373526        -1.949916        -1.778782
 H         2.184660        -0.882140         1.983222
