19
Iteration:  1068charge 0 multiplicity 1
 C        -0.143927         0.289984        -0.035706
 C         1.361511         0.109782         0.001183
 C         2.379998         1.247025        -0.046755
 C         3.452799         0.366872         0.530845
 O         4.418168         1.068299         1.407673
 C         3.708048        -0.657710        -0.742377
 C         2.262661        -1.086729        -0.398120
 O         1.710762        -2.250261        -0.995349
 C         2.311286        -0.676183         1.029078
 H        -0.448239         0.985657         0.740870
 H        -0.479643         0.840789        -0.957279
 H        -0.666238        -0.682977         0.090909
 H         2.485294         1.813657        -1.135699
 H         2.148390         2.010996         0.667703
 H         5.250260         0.713683         1.167167
 H         3.927319        -0.076240        -1.672087
 H         4.550853        -1.310246        -0.509441
 H         1.261279        -1.833848        -1.780721
 H         2.228808        -1.239179         1.859367
