19
Iteration:    88
 C        -0.095683         0.213223        -0.015817
 C         1.359119         0.224733         0.094954
 C         2.296699         1.332030         0.013748
 C         3.443502         0.367170         0.505319
 O         4.534127         0.860867         1.256659
 C         3.629337        -0.554465        -0.715713
 C         2.222616        -1.054134        -0.385751
 O         1.825767        -2.175077        -1.081781
 C         2.214221        -0.630354         1.066826
 H        -0.662541         0.778158         0.756335
 H        -0.467111         0.585431        -0.997084
 H        -0.396219        -0.852451         0.087074
 H         2.430585         1.777138        -0.944121
 H         2.072336         2.198066         0.671066
 H         5.244037         0.894493         0.619886
 H         3.733269        -0.330330        -1.777571
 H         4.295216        -1.342061        -0.304607
 H         1.445749        -2.880357        -0.529348
 H         2.025360        -1.142898         1.972116
