19
Iteration:   635charge 0 multiplicity 1
 C        -0.027433         0.283905        -0.177563
 C         1.384393         0.087031         0.176236
 C         2.274906         1.313645         0.073126
 C         3.445413         0.331096         0.538515
 O         4.509315         1.074021         1.228679
 C         3.679445        -0.564662        -0.653506
 C         2.253718        -1.133957        -0.363026
 O         1.616242        -2.175800        -1.158669
 C         2.308461        -0.687807         1.105803
 H        -0.678151         0.752632         0.639666
 H        -0.160383         0.885442        -1.143050
 H        -0.357508        -0.779496        -0.397896
 H         2.256498         1.610164        -0.995795
 H         1.927446         2.095359         0.847181
 H         5.360739         0.703435         1.066160
 H         3.970998        -0.085948        -1.628280
 H         4.417396        -1.407992        -0.245924
 H         1.594694        -3.017158        -0.631665
 H         2.140465        -1.238394         2.087143
