19
Iteration:  4804charge 0 multiplicity 1
 C        -0.133775         0.367764        -0.071064
 C         1.399572         0.169963        -0.090058
 C         2.391569         1.271252        -0.031205
 C         3.375816         0.274875         0.572737
 O         4.407107         0.906922         1.332958
 C         3.657726        -0.569838        -0.657435
 C         2.278550        -1.112327        -0.466838
 O         1.852614        -2.247165        -0.880201
 C         2.266437        -0.691848         0.964026
 H        -0.496009         0.855846         0.850331
 H        -0.140653         1.198711        -0.824455
 H        -0.886960        -0.457443        -0.405816
 H         2.593905         1.901998        -0.880487
 H         2.051050         1.799495         0.937244
 H         4.226480         1.827907         1.410011
 H         3.918780         0.046570        -1.449283
 H         4.389333        -1.396747        -0.435211
 H         1.734062        -2.252484        -1.857975
 H         1.941682        -1.180898         1.890563
