19
Iteration:  4454
 C        -0.097054         0.142207        -0.198588
 C         1.423210         0.181797        -0.003595
 C         2.360013         1.301021        -0.103072
 C         3.436270         0.412924         0.566231
 O         4.533154         0.916035         1.289708
 C         3.745195        -0.641229        -0.627587
 C         2.312879        -1.059123        -0.328606
 O         1.579296        -2.206928        -0.935987
 C         2.248589        -0.526538         1.039091
 H        -0.738585         0.881761         0.291439
 H        -0.365331         0.165583        -1.249594
 H        -0.535143        -0.840744         0.133790
 H         2.571391         1.730330        -1.139913
 H         2.133206         2.041611         0.639309
 H         4.362986         0.553854         2.245372
 H         4.085221        -0.141333        -1.537812
 H         4.517429        -1.372500        -0.304154
 H         1.335058        -1.889257        -1.814153
 H         2.000862        -0.775827         2.068518
