19
Iteration:  3368charge 0 multiplicity 1
 C        -0.141521         0.094450        -0.259991
 C         1.445913         0.206602         0.018153
 C         2.398860         1.425449        -0.057868
 C         3.462761         0.405060         0.560806
 O         4.665972         0.797830         1.243074
 C         3.632527        -0.630336        -0.584322
 C         2.210295        -1.065693        -0.338739
 O         1.673527        -2.213932        -0.913768
 C         2.174503        -0.549603         1.099822
 H        -0.749523         1.046739         0.013763
 H        -0.192483        -0.075976        -1.382027
 H        -0.758971        -0.721412         0.051783
 H         2.440890         1.810871        -1.002122
 H         2.007311         2.073937         0.642875
 H         4.419457         1.525992         1.825793
 H         3.909893        -0.146449        -1.512035
 H         4.259067        -1.522577        -0.401986
 H         1.403913        -1.840595        -1.755435
 H         1.952060        -0.701727         2.119761
