19
Iteration:  1431charge 0 multiplicity 1
 C        -0.030313         0.272289        -0.035062
 C         1.424805         0.133243        -0.001747
 C         2.463046         1.269823        -0.170836
 C         3.450702         0.389024         0.523407
 O         4.405382         0.961062         1.449124
 C         3.720195        -0.641534        -0.678924
 C         2.193326        -1.034862        -0.453773
 O         1.574646        -2.260812        -0.904658
 C         2.312165        -0.639975         0.952036
 H        -0.318164         0.696852         0.885171
 H        -0.275211         0.575256        -1.007543
 H        -0.429303        -0.657176         0.089155
 H         2.642496         1.785073        -1.207823
 H         2.277197         2.152257         0.428540
 H         4.084571         1.809306         1.667309
 H         4.016892        -0.148650        -1.583138
 H         4.329088        -1.517720        -0.468535
 H         1.811983        -2.341139        -1.873537
 H         2.080432        -1.108676         1.863194
