19
Iteration:   806
 C        -0.108162         0.082993        -0.178004
 C         1.346393         0.131779         0.191262
 C         2.255505         1.408564         0.024698
 C         3.405600         0.452458         0.504163
 O         4.519513         0.790744         1.230604
 C         3.702915        -0.497177        -0.627183
 C         2.265710        -1.023448        -0.369173
 O         1.682205        -2.098872        -1.063382
 C         2.304870        -0.646721         1.092451
 H        -0.628588         0.461757         0.678211
 H        -0.198217         0.780075        -1.040621
 H        -0.603814        -0.884222        -0.501849
 H         2.127563         1.964255        -0.906378
 H         2.124268         2.268931         0.789159
 H         5.289133         0.406858         0.766826
 H         3.999277        -0.047383        -1.613043
 H         4.439268        -1.276709        -0.362649
 H         2.137711        -2.925778        -1.068198
 H         2.317247        -1.281233         2.044319
