19
Iteration:  4410
 C        -0.107464         0.336711        -0.305926
 C         1.344855         0.174505         0.070998
 C         2.336250         1.391844         0.076886
 C         3.463652         0.347782         0.514960
 O         4.511906         0.987810         1.247719
 C         3.713254        -0.620012        -0.541271
 C         2.282531        -1.098747        -0.385099
 O         1.714714        -2.412174        -0.900581
 C         2.193366        -0.591306         0.983485
 H        -0.616263         0.909292         0.495733
 H        -0.128129         0.862443        -1.266798
 H        -0.582014        -0.700623        -0.458425
 H         2.579987         2.011779        -0.881042
 H         2.075176         2.025466         0.913925
 H         5.442016         0.622338         0.892889
 H         3.938266        -0.182551        -1.491834
 H         4.420683        -1.334610        -0.105325
 H         1.014174        -2.435351        -1.552271
 H         1.825831        -0.851802         2.054407
