19
Iteration:  4613
 C        -0.150186         0.008336        -0.217111
 C         1.382639         0.225619        -0.108045
 C         2.339351         1.460909        -0.006733
 C         3.441881         0.408456         0.529922
 O         4.495027         0.698048         1.302422
 C         3.823569        -0.622435        -0.626597
 C         2.315640        -0.990931        -0.421625
 O         1.615220        -2.164042        -0.799669
 C         2.269890        -0.512888         0.982836
 H        -0.498311         0.379204         0.786107
 H        -0.588349         0.615002        -1.044951
 H        -0.327644        -1.031493        -0.198277
 H         2.678707         2.081678        -0.889438
 H         2.233247         2.174671         0.868638
 H         4.420903         1.629604         1.704613
 H         4.049156        -0.264232        -1.570387
 H         4.479481        -1.392088        -0.383398
 H         1.271877        -2.138649        -1.705338
 H         1.758291        -0.898949         1.916581
