19
Iteration:   665
 C        -0.133521         0.131701        -0.200851
 C         1.338792         0.160476         0.009850
 C         2.269834         1.415286         0.175380
 C         3.402587         0.319804         0.548110
 O         4.578927         0.883954         1.135733
 C         3.718575        -0.597032        -0.652774
 C         2.279772        -1.041799        -0.420136
 O         1.709679        -2.090875        -0.964287
 C         2.204000        -0.577384         1.061103
 H        -0.634124         0.559417         0.622165
 H        -0.375157         0.469228        -1.200522
 H        -0.532213        -0.924309        -0.296000
 H         2.287498         2.178645        -0.570739
 H         1.938825         2.001887         1.127559
 H         5.342143         0.256176         1.168937
 H         4.074138        -0.181880        -1.581199
 H         4.394296        -1.396165        -0.301342
 H         2.215557        -2.867377        -0.753706
 H         2.019400        -1.074978         1.904092
