19
Iteration:  4784charge 0 multiplicity 1
 C        -0.148460         0.215214        -0.157497
 C         1.420485         0.204897        -0.091362
 C         2.364416         1.400211         0.086432
 C         3.435174         0.389624         0.518856
 O         4.483650         0.798194         1.370361
 C         3.740089        -0.550331        -0.680495
 C         2.286368        -1.079572        -0.481498
 O         1.706098        -2.292158        -0.858189
 C         2.191155        -0.561527         0.977289
 H        -0.368171         0.230889         0.903797
 H        -0.668590         0.944276        -0.799945
 H        -0.385268        -0.772624        -0.569800
 H         2.679677         1.818930        -0.903777
 H         1.946410         2.076924         0.888564
 H         4.538905         1.835691         1.365043
 H         4.033270        -0.114770        -1.580517
 H         4.410669        -1.387615        -0.404221
 H         1.729398        -2.383569        -1.820993
 H         1.890574        -1.143310         1.790824
