19
Iteration:  3024
 C        -0.124406         0.307860        -0.251769
 C         1.292470         0.216571        -0.015983
 C         2.321949         1.416508         0.012057
 C         3.363282         0.424911         0.509647
 O         4.600649         0.692258         1.232563
 C         3.724207        -0.575673        -0.651150
 C         2.261484        -1.039276        -0.414441
 O         1.778373        -2.316823        -0.722449
 C         2.201210        -0.524756         0.967036
 H        -0.647312         0.599458         0.609884
 H        -0.388097         0.753834        -1.239376
 H        -0.521484        -0.752239        -0.372851
 H         2.594871         1.842201        -1.024006
 H         2.176000         2.180708         0.717222
 H         4.421314         1.322102         2.029090
 H         3.998860        -0.130054        -1.608269
 H         4.289278        -1.379167        -0.194664
 H         1.887428        -2.459099        -1.672447
 H         1.959072        -1.273958         1.851623
