19
Iteration:  2952
 C        -0.140788         0.201019        -0.124305
 C         1.371826         0.172151        -0.078866
 C         2.378424         1.271148        -0.059828
 C         3.470417         0.372576         0.488385
 O         4.498627         0.902823         1.288259
 C         3.777282        -0.681333        -0.588780
 C         2.258064        -0.995843        -0.453317
 O         1.701094        -2.185856        -0.864112
 C         2.254454        -0.550009         0.974899
 H        -0.477793         1.008092         0.553778
 H        -0.529166         0.341485        -1.121121
 H        -0.679226        -0.646346         0.284117
 H         2.634568         1.682470        -1.020569
 H         1.848819         2.112827         0.551717
 H         4.308122         0.795484         2.271183
 H         4.210435        -0.422218        -1.572607
 H         4.306759        -1.390694         0.038024
 H         1.095621        -2.067244        -1.603580
 H         1.971749        -0.930731         2.046612
