19
Iteration:   730charge 0 multiplicity 1
 C        -0.084672         0.190976         0.051967
 C         1.386241         0.064114         0.062930
 C         2.305166         1.302864        -0.074116
 C         3.475097         0.329611         0.382528
 O         4.339503         0.871448         1.372661
 C         3.769260        -0.522492        -0.785514
 C         2.302239        -1.013306        -0.462837
 O         1.657053        -2.043630        -0.992347
 C         2.347573        -0.602795         0.983953
 H        -0.333886         0.983829         0.724575
 H        -0.338393         0.269497        -1.009474
 H        -0.651771        -0.753452         0.282961
 H         2.288898         1.889420        -0.981050
 H         2.122763         1.896946         0.888798
 H         4.628153         0.145249         2.007038
 H         4.023882         0.044723        -1.657303
 H         4.429136        -1.277988        -0.452330
 H         1.933464        -2.915878        -0.598269
 H         2.248882        -1.073399         1.909757
