19
Iteration:  4021
 C        -0.058087         0.359097        -0.250103
 C         1.381200         0.130945        -0.007625
 C         2.416838         1.293902        -0.110668
 C         3.373686         0.371588         0.542567
 O         4.458643         0.892969         1.346350
 C         3.773089        -0.626337        -0.581484
 C         2.287246        -1.127144        -0.386625
 O         1.645429        -2.314802        -0.893334
 C         2.274557        -0.575705         1.071220
 H        -0.421539         1.015616         0.531604
 H        -0.053662         0.836453        -1.240968
 H        -0.645379        -0.633477        -0.334379
 H         2.539063         1.702565        -1.100946
 H         2.000268         2.117141         0.568581
 H         4.459939         1.835660         1.090027
 H         4.031209        -0.265056        -1.591662
 H         4.393157        -1.425162        -0.244924
 H         0.794557        -2.061544        -1.286429
 H         2.170995        -0.872418         2.159239
