19
Iteration:   584charge 0 multiplicity 1
 C        -0.079690         0.107923         0.006211
 C         1.401528         0.148307         0.012187
 C         2.326799         1.487232        -0.001772
 C         3.396842         0.484506         0.459272
 O         4.487513         0.843358         1.354964
 C         3.784153        -0.643660        -0.663688
 C         2.259085        -0.984513        -0.580818
 O         1.587470        -2.285318        -0.942335
 C         2.281517        -0.482260         0.891987
 H        -0.546661         0.702797         0.804422
 H        -0.380941         0.660923        -0.851541
 H        -0.387505        -0.877888         0.079528
 H         2.400754         1.968013        -1.000619
 H         2.103297         2.043339         0.824069
 H         4.647055         0.026892         1.823088
 H         4.065570        -0.181570        -1.621281
 H         4.438023        -1.340663        -0.298921
 H         2.274103        -2.917524        -0.709970
 H         2.049580        -0.984909         1.976381
