19
Iteration:  1841
 C        -0.071922         0.212625        -0.306912
 C         1.378440         0.133032        -0.013699
 C         2.318837         1.357412         0.044322
 C         3.400499         0.419994         0.601865
 O         4.666641         0.883562         1.108621
 C         3.729717        -0.680797        -0.454149
 C         2.202233        -1.103026        -0.356536
 O         1.694421        -2.229244        -1.050549
 C         2.218978        -0.490003         1.144474
 H        -0.774828         0.688302         0.449819
 H        -0.275025         0.786907        -1.213807
 H        -0.638961        -0.754628        -0.652178
 H         2.616563         1.915295        -0.775721
 H         1.985972         1.808159         0.910763
 H         4.743781         0.693446         2.013816
 H         4.119252        -0.468326        -1.443398
 H         4.123060        -1.518948         0.009757
 H         0.775789        -1.915871        -1.066383
 H         1.751859        -0.466146         2.033655
