19
Iteration:  2481charge 0 multiplicity 1
 C        -0.121423         0.216009        -0.116601
 C         1.405607         0.181535        -0.043779
 C         2.395942         1.284751        -0.101375
 C         3.526567         0.385701         0.477040
 O         4.483400         1.042777         1.347248
 C         3.684998        -0.651514        -0.624287
 C         2.292542        -1.111854        -0.379864
 O         1.672941        -2.200407        -0.931842
 C         2.206735        -0.656823         1.060828
 H        -0.687079         0.547589         0.765938
 H        -0.517236         0.900048        -0.953791
 H        -0.432886        -0.843199        -0.376071
 H         2.692566         1.717278        -1.141791
 H         2.098646         2.190496         0.482367
 H         4.613527         0.573125         2.209506
 H         3.828616        -0.205505        -1.612744
 H         4.477846        -1.427286        -0.421907
 H         1.265581        -2.007543        -1.777331
 H         1.785213        -1.261489         2.036377
