19
Iteration:  2751charge 0 multiplicity 1
 C        -0.034192         0.116261        -0.224445
 C         1.487540         0.144224        -0.014562
 C         2.371853         1.408905        -0.038176
 C         3.409044         0.419713         0.560082
 O         4.475074         0.999363         1.293395
 C         3.686077        -0.652395        -0.602537
 C         2.270676        -1.103821        -0.416005
 O         1.564351        -2.198737        -0.915262
 C         2.291903        -0.638182         1.087446
 H        -0.533706         0.938370         0.274447
 H        -0.259347         0.166561        -1.293709
 H        -0.687208        -0.743706         0.091235
 H         2.628978         1.687260        -1.075854
 H         2.062593         2.078071         0.775948
 H         5.219614         0.348988         1.374686
 H         4.043837        -0.121934        -1.501497
 H         4.325185        -1.420793        -0.059252
 H         1.186225        -1.736351        -1.726349
 H         1.899014        -0.909217         1.991118
