19
Iteration:  3299charge 0 multiplicity 1
 C        -0.120042         0.325502        -0.145714
 C         1.356791         0.148608        -0.127780
 C         2.415314         1.399171        -0.096950
 C         3.500170         0.398731         0.525747
 O         4.507375         0.813827         1.317466
 C         3.683739        -0.575006        -0.644237
 C         2.231060        -1.135824        -0.414726
 O         1.785309        -2.339576        -0.807944
 C         2.191119        -0.511178         1.021275
 H        -0.296970         1.240614         0.370484
 H        -0.526962         0.317857        -1.236855
 H        -0.810962        -0.426830         0.336493
 H         2.766285         1.932076        -0.890353
 H         2.105591         2.065758         0.770812
 H         3.975276         1.146114         2.145020
 H         3.638838        -0.265214        -1.741222
 H         4.433522        -1.388064        -0.623632
 H         1.227797        -2.282621        -1.605808
 H         2.030835        -1.105556         2.030871
