19
Iteration:   755
 C        -0.083843         0.245977         0.053093
 C         1.382481         0.129262         0.009578
 C         2.392269         1.323317         0.096796
 C         3.442979         0.426114         0.559992
 O         4.513612         1.094390         1.268742
 C         3.714752        -0.588787        -0.640312
 C         2.202816        -1.094842        -0.516202
 O         1.641453        -2.205765        -1.149460
 C         2.223432        -0.723125         0.934189
 H        -0.399454         0.831663         0.932951
 H        -0.590678         0.301610        -0.914633
 H        -0.380540        -0.786233         0.233971
 H         2.630961         1.763534        -0.892120
 H         1.920080         2.067523         0.806565
 H         4.961165         0.401946         1.865493
 H         3.993752        -0.113264        -1.558174
 H         4.439879        -1.337929        -0.218430
 H         1.998261        -3.067784        -0.889053
 H         1.954872        -1.447243         1.861278
