19
Iteration:  1470
 C        -0.087237         0.404479        -0.132661
 C         1.373257         0.145413        -0.048503
 C         2.262324         1.354139        -0.009459
 C         3.412313         0.432572         0.475468
 O         4.551986         0.782616         1.222151
 C         3.686714        -0.575968        -0.598579
 C         2.253983        -1.101846        -0.406284
 O         1.858316        -2.346750        -0.905691
 C         2.201492        -0.602223         1.026141
 H        -0.395287         1.335842         0.498552
 H        -0.400223         0.749503        -1.224854
 H        -0.850873        -0.473289         0.108480
 H         2.380838         1.941050        -0.870450
 H         1.900297         1.925529         0.899654
 H         4.401468         1.125802         2.154721
 H         3.997140        -0.204016        -1.628054
 H         4.380665        -1.330034        -0.159211
 H         1.046792        -2.306654        -1.402563
 H         2.066062        -0.998487         1.997818
