19
Iteration:  4814
 C        -0.091013         0.487741        -0.085652
 C         1.391915         0.070739         0.027468
 C         2.314382         1.291197         0.014136
 C         3.414446         0.350619         0.548065
 O         4.405724         0.918395         1.337053
 C         3.691152        -0.588550        -0.659144
 C         2.296629        -1.084413        -0.463947
 O         1.859563        -2.343486        -0.954473
 C         2.232683        -0.698801         0.973179
 H        -0.345537         0.948713         0.878710
 H        -0.292674         1.157774        -0.945774
 H        -0.770030        -0.443835        -0.301522
 H         2.537236         1.661594        -0.960392
 H         2.009956         2.185398         0.648756
 H         4.057127         1.740660         1.530728
 H         3.970467        -0.103355        -1.628465
 H         4.413591        -1.441013        -0.477707
 H         1.625093        -2.275673        -1.911821
 H         1.867706        -1.154808         1.920277
