19
Iteration:  4170
 C        -0.085113         0.280049        -0.322245
 C         1.420797         0.099990        -0.096741
 C         2.356509         1.305937        -0.099355
 C         3.492215         0.418781         0.578316
 O         4.501031         0.981222         1.339269
 C         3.642734        -0.664044        -0.571853
 C         2.266390        -1.099580        -0.315310
 O         1.554845        -2.226169        -0.908777
 C         2.296782        -0.513056         1.059561
 H        -0.483468         0.776932         0.589316
 H        -0.154401         0.954490        -1.182774
 H        -0.502303        -0.728690        -0.495498
 H         2.499786         1.831706        -1.059549
 H         2.022371         2.058790         0.571127
 H         4.947841         0.160972         1.795760
 H         3.951075        -0.496926        -1.659406
 H         4.340628        -1.492839        -0.128644
 H         2.229434        -2.917405        -1.011725
 H         1.876343        -0.725639         2.024212
