19
Iteration:   989charge 0 multiplicity 1
 C        -0.057645         0.097252        -0.225982
 C         1.379717         0.174639         0.018707
 C         2.310012         1.369450         0.038490
 C         3.460744         0.401515         0.535355
 O         4.497393         0.753190         1.341451
 C         3.542440        -0.418464        -0.767506
 C         2.215511        -0.980874        -0.374489
 O         1.705376        -2.179163        -0.969163
 C         2.363755        -0.584621         1.038312
 H        -0.583997         0.536504         0.636482
 H        -0.286520         0.483646        -1.225024
 H        -0.485981        -0.969252        -0.311150
 H         2.576162         2.024624        -0.971176
 H         2.033278         2.116750         0.818168
 H         5.213386         0.163344         1.398822
 H         3.835933         0.221128        -1.643902
 H         4.268192        -1.267756        -0.695556
 H         1.724977        -2.703791        -0.127499
 H         2.194784        -1.060834         2.123948
