19
Iteration:  4950
 C        -0.108404         0.374045        -0.223850
 C         1.312589         0.165929        -0.051936
 C         2.362941         1.351738         0.099660
 C         3.419552         0.408496         0.581354
 O         4.443411         0.941268         1.339144
 C         3.639579        -0.572165        -0.567604
 C         2.246358        -1.103632        -0.474079
 O         1.806642        -2.440716        -0.949851
 C         2.296100        -0.637313         1.007349
 H        -0.432782         1.018960         0.657978
 H        -0.287803         0.894479        -1.228597
 H        -0.629897        -0.548138        -0.209859
 H         2.509200         1.971852        -0.799283
 H         2.138146         1.999672         0.964200
 H         5.166284         1.226671         0.759176
 H         3.875149        -0.092662        -1.537924
 H         4.375115        -1.303378        -0.333766
 H         1.404824        -2.276044        -1.815452
 H         2.167444        -1.325144         1.989709
