19
Iteration:   605
 C        -0.090365         0.204722        -0.084340
 C         1.441045         0.104052        -0.054040
 C         2.436402         1.315148         0.028874
 C         3.461212         0.301119         0.496194
 O         4.383034         1.029210         1.299794
 C         3.653783        -0.541769        -0.754217
 C         2.291810        -1.069366        -0.365364
 O         1.619167        -2.132709        -0.998671
 C         2.305937        -0.666190         1.022894
 H        -0.481674         0.601895         0.896432
 H        -0.563591         0.865314        -0.812861
 H        -0.417755        -0.797877        -0.080109
 H         2.687712         1.796535        -0.970989
 H         2.145816         2.006399         0.760327
 H         5.074611         0.425405         1.743972
 H         3.821865        -0.104297        -1.752323
 H         4.355732        -1.261195        -0.443358
 H         1.800456        -2.948857        -0.503084
 H         1.851213        -1.258011         1.971638
