19
Iteration:  1676
 C        -0.073558         0.165364        -0.352690
 C         1.467507         0.090956         0.016969
 C         2.441147         1.456639         0.034911
 C         3.414480         0.343129         0.529315
 O         4.547510         0.985699         1.331408
 C         3.720104        -0.645654        -0.732574
 C         2.297639        -1.143159        -0.352516
 O         1.534646        -2.208685        -0.927407
 C         2.265614        -0.598841         1.045338
 H        -0.587652         1.025445         0.294363
 H        -0.245186         0.545152        -1.387922
 H        -0.536645        -0.847500        -0.199329
 H         2.694809         2.064035        -0.859679
 H         2.252797         1.864871         1.086663
 H         4.269615         0.916389         2.336264
 H         3.897479        -0.275686        -1.792769
 H         4.348650        -1.426999        -0.235769
 H         0.600093        -1.930213        -0.920147
 H         1.916735        -0.960411         2.061439
