19
Iteration:  1894charge 0 multiplicity 1
 C        -0.043216         0.220270        -0.297438
 C         1.421155         0.206792         0.018003
 C         2.369860         1.361630        -0.073340
 C         3.430556         0.337880         0.553281
 O         4.537762         0.824629         1.356994
 C         3.698006        -0.603345        -0.669532
 C         2.205760        -1.026768        -0.423354
 O         1.664990        -2.260746        -0.906763
 C         2.306191        -0.565809         1.034936
 H        -0.530780         1.171733         0.137622
 H        -0.298383         0.049724        -1.310473
 H        -0.742968        -0.428557         0.256304
 H         2.494372         1.942024        -1.150565
 H         2.120554         2.149232         0.666281
 H         4.164040         0.957443         2.222749
 H         3.865306        -0.086885        -1.668607
 H         4.464785        -1.345753        -0.372724
 H         0.771834        -2.278559        -0.548073
 H         2.110988        -0.896816         1.967258
