19
Iteration:  2159charge 0 multiplicity 1
 C        -0.054099         0.057326        -0.310234
 C         1.449113         0.192996        -0.030727
 C         2.466555         1.366906        -0.053371
 C         3.486569         0.406629         0.558015
 O         4.463400         0.865409         1.366551
 C         3.737942        -0.726832        -0.583767
 C         2.306822        -1.060041        -0.350894
 O         1.476590        -2.064880        -0.954046
 C         2.212488        -0.537818         1.049617
 H        -0.552711         1.023661         0.117085
 H        -0.386805        -0.021426        -1.309030
 H        -0.422673        -0.770386         0.278140
 H         2.644367         1.929320        -1.018262
 H         2.200903         2.092118         0.675763
 H         4.356745         1.766253         1.158778
 H         4.016558        -0.342521        -1.610257
 H         4.400112        -1.583286        -0.355266
 H         1.865778        -2.935615        -0.702933
 H         1.881685        -0.922490         1.943010
