19
Iteration:  3319
 C        -0.077967         0.373068        -0.207429
 C         1.461809         0.226294        -0.050577
 C         2.285345         1.389999         0.011001
 C         3.378758         0.365633         0.508711
 O         4.529097         0.854544         1.336601
 C         3.714055        -0.614669        -0.720389
 C         2.257945        -1.129667        -0.478167
 O         1.686101        -2.371563        -0.738173
 C         2.293915        -0.607048         0.931382
 H        -0.310208         1.338336         0.145475
 H        -0.619817         0.153588        -1.123124
 H        -0.683589        -0.318823         0.466273
 H         2.655587         1.946508        -0.920024
 H         2.034897         1.993416         0.998091
 H         4.062365         1.406594         2.054195
 H         4.063354        -0.034164        -1.647279
 H         4.470514        -1.387194        -0.488611
 H         1.590681        -2.494838        -1.728064
 H         1.845570        -0.955041         1.854300
