19
Iteration:   744charge 0 multiplicity 1
 C        -0.140413         0.182870         0.047496
 C         1.420316         0.135140         0.013805
 C         2.326132         1.355271         0.026939
 C         3.399079         0.367033         0.587124
 O         4.394450         0.979925         1.266582
 C         3.767171        -0.582590        -0.707478
 C         2.319785        -1.040471        -0.525137
 O         1.627218        -2.134347        -1.081873
 C         2.360207        -0.703116         0.965003
 H        -0.425148         1.034574         0.705893
 H        -0.605635         0.630389        -0.832836
 H        -0.612485        -0.682151         0.479526
 H         2.601533         1.743804        -0.962925
 H         2.090932         2.196669         0.753423
 H         4.711250         0.395376         1.975792
 H         4.121715        -0.206263        -1.660636
 H         4.461349        -1.437006        -0.453160
 H         1.982823        -2.902453        -0.643691
 H         2.205622        -1.430785         1.893006
