19
Iteration:    98charge 0 multiplicity 1
 C        -0.233558         0.218838        -0.035492
 C         1.318881         0.161114         0.023600
 C         2.378846         1.316423         0.045314
 C         3.492098         0.386415         0.470026
 O         4.536460         0.898291         1.241108
 C         3.627841        -0.598328        -0.664796
 C         2.223621        -1.036330        -0.366723
 O         1.781923        -2.149180        -1.073368
 C         2.242214        -0.579748         1.054160
 H        -0.617687         0.830459         0.806095
 H        -0.707377         0.356606        -1.032348
 H        -0.544559        -0.816675         0.230539
 H         2.586651         1.833637        -0.861840
 H         2.148161         1.912889         0.962525
 H         5.385745         0.633177         0.897497
 H         3.968214        -0.120617        -1.588898
 H         4.364182        -1.380038        -0.558631
 H         1.899572        -2.936843        -0.540912
 H         2.133445        -1.277187         1.799600
