19
Iteration:  4007charge 0 multiplicity 1
 C         0.098563         0.315854        -0.249633
 C         1.519578         0.135282         0.018217
 C         2.322758         1.305611        -0.123809
 C         3.447549         0.398040         0.562614
 O         4.442223         0.926824         1.246682
 C         3.665661        -0.661569        -0.516066
 C         2.249930        -1.117024        -0.339813
 O         1.617420        -2.281119        -0.913353
 C         2.190338        -0.609174         1.071014
 H        -0.400334         0.810929         0.600354
 H        -0.259641         0.902412        -1.104116
 H        -0.520027        -0.650516        -0.205002
 H         2.708054         1.559357        -1.173389
 H         2.102469         2.202782         0.539949
 H         4.388046         1.871687         1.274400
 H         4.099159        -0.257617        -1.405263
 H         4.401777        -1.301532         0.010106
 H         1.073087        -1.893116        -1.658172
 H         1.834886        -1.359726         1.840395
