19
Iteration:  2722
 C        -0.141195         0.177749        -0.315027
 C         1.407430         0.175087         0.022430
 C         2.384606         1.384366         0.013477
 C         3.445119         0.337686         0.470306
 O         4.486090         0.875034         1.313322
 C         3.680261        -0.561456        -0.755907
 C         2.307560        -1.036454        -0.381867
 O         1.675839        -2.257965        -0.747871
 C         2.292415        -0.553157         1.026154
 H        -0.762069         1.034611         0.182336
 H        -0.162497         0.265160        -1.403781
 H        -0.616797        -0.847216        -0.101718
 H         2.499431         1.852359        -0.949447
 H         2.189240         2.075768         0.927410
 H         4.546023         0.227462         2.134836
 H         3.802030         0.078884        -1.636876
 H         4.449015        -1.267743        -0.468136
 H         1.181255        -1.910917        -1.511900
 H         2.086502        -1.037608         1.948726
