19
Iteration:  3115charge 0 multiplicity 1
 C        -0.109681         0.164484        -0.146376
 C         1.421253         0.172225        -0.064977
 C         2.298070         1.389905        -0.185946
 C         3.453395         0.420539         0.492609
 O         4.524312         0.754852         1.363394
 C         3.762464        -0.673182        -0.598694
 C         2.266755        -1.040503        -0.436973
 O         1.683737        -2.173920        -0.810173
 C         2.237371        -0.522370         1.011296
 H        -0.464767         1.082874         0.278086
 H        -0.383450         0.044736        -1.203090
 H        -0.637927        -0.607846         0.371745
 H         2.820813         1.769640        -1.072458
 H         2.178880         2.154341         0.471396
 H         4.141671         1.436689         1.970690
 H         4.087362        -0.259179        -1.542177
 H         4.309648        -1.496723        -0.160808
 H         1.064473        -2.008939        -1.568514
 H         1.918280        -0.919621         1.873479
