19
Iteration:  3104charge 0 multiplicity 1
 C        -0.054754         0.159549        -0.186841
 C         1.403325         0.152039         0.031678
 C         2.441209         1.379752        -0.150424
 C         3.434145         0.380638         0.501186
 O         4.461851         0.820837         1.318680
 C         3.776823        -0.653265        -0.568028
 C         2.251084        -1.012846        -0.410112
 O         1.600946        -2.209660        -0.888338
 C         2.276030        -0.533882         1.054276
 H        -0.466489         1.072461         0.188904
 H        -0.351335         0.235206        -1.249065
 H        -0.478023        -0.695784         0.301591
 H         2.390907         1.660545        -1.226350
 H         1.958183         2.121681         0.321730
 H         4.180797         1.601942         1.938137
 H         4.271375        -0.402397        -1.501855
 H         4.458328        -1.381402        -0.149740
 H         0.894279        -1.921626        -1.488721
 H         2.120400        -1.108670         1.841544
