19
Iteration:  1932charge 0 multiplicity 1
 C        -0.092658         0.308578        -0.088221
 C         1.403180         0.278052        -0.109164
 C         2.396190         1.478213        -0.135073
 C         3.361812         0.364782         0.535495
 O         4.409114         0.647300         1.347808
 C         3.777054        -0.562968        -0.643912
 C         2.282066        -1.105524        -0.494055
 O         1.815968        -2.346756        -0.861501
 C         2.182422        -0.529014         0.958711
 H        -0.324153         1.334554         0.025560
 H        -0.613520        -0.051865        -1.058069
 H        -0.353856        -0.440776         0.761891
 H         2.752473         2.042474        -0.931781
 H         2.167199         1.976596         0.799323
 H         4.285691         1.533687         1.852423
 H         4.000934        -0.066832        -1.553606
 H         4.431484        -1.407885        -0.355438
 H         0.894047        -2.383310        -0.586309
 H         1.757400        -0.715272         2.088454
