19
Iteration:   812
 C        -0.105227         0.063847        -0.214326
 C         1.346790         0.085884         0.212906
 C         2.229430         1.431915         0.055845
 C         3.440755         0.444249         0.480122
 O         4.551378         0.793490         1.297922
 C         3.707319        -0.505836        -0.676871
 C         2.258585        -0.989134        -0.425363
 O         1.634468        -2.109705        -1.028857
 C         2.319925        -0.630354         1.089636
 H        -0.749455         0.506218         0.606500
 H        -0.187311         0.831742        -0.974513
 H        -0.465183        -0.916453        -0.428689
 H         2.109585         1.841162        -1.009427
 H         2.053214         2.292117         0.643830
 H         5.279091         0.432771         0.839073
 H         3.974103         0.053253        -1.594650
 H         4.502518        -1.277745        -0.589774
 H         2.230869        -2.897937        -0.905255
 H         2.213501        -1.176329         1.967485
