19
Iteration:  2413charge 0 multiplicity 1
 C        -0.137619         0.250075        -0.241870
 C         1.388020         0.193129        -0.014993
 C         2.415924         1.370146        -0.028826
 C         3.396227         0.377805         0.556949
 O         4.503374         0.826712         1.333043
 C         3.688659        -0.572634        -0.605262
 C         2.214406        -1.074507        -0.415467
 O         1.771347        -2.357046        -0.887819
 C         2.238497        -0.486739         1.047101
 H        -0.694430         0.766447         0.588600
 H        -0.495246         0.638983        -1.134716
 H        -0.491666        -0.849684        -0.129151
 H         2.542055         1.955105        -0.976559
 H         1.880233         2.065751         0.726987
 H         5.226266         1.283316         0.776388
 H         3.939414        -0.142042        -1.525649
 H         4.505127        -1.282511        -0.292012
 H         1.003265        -2.264533        -1.523264
 H         2.057293        -0.950558         1.920711
