19
Iteration:  3263
 C        -0.116274         0.150470        -0.198672
 C         1.400403         0.184899         0.011233
 C         2.340569         1.406966        -0.169575
 C         3.402637         0.443118         0.477680
 O         4.598253         0.747144         1.264644
 C         3.727992        -0.669436        -0.475224
 C         2.263288        -1.034965        -0.353134
 O         1.717816        -2.228607        -0.937931
 C         2.179712        -0.483623         1.064498
 H        -0.621535         0.626941         0.651132
 H        -0.378786         0.743927        -1.036543
 H        -0.489986        -0.900180        -0.227386
 H         2.690290         1.749193        -1.157668
 H         2.064061         2.331823         0.417140
 H         4.325207         1.452490         1.951673
 H         4.029915        -0.376278        -1.549904
 H         4.428908        -1.395857        -0.038400
 H         0.838297        -2.103448        -1.315226
 H         1.998548        -0.970953         1.912559
