19
Iteration:  1790charge 0 multiplicity 1
 C        -0.083192         0.313640        -0.094048
 C         1.397483         0.174577        -0.073385
 C         2.430204         1.350162        -0.148629
 C         3.487925         0.351605         0.477061
 O         4.411568         0.770710         1.462425
 C         3.763514        -0.569357        -0.719925
 C         2.215800        -1.069130        -0.481945
 O         1.642205        -2.305755        -0.752309
 C         2.286948        -0.515414         0.940382
 H        -0.425096         0.789095         0.754219
 H        -0.488323         0.997055        -0.871322
 H        -0.663372        -0.593331        -0.213719
 H         2.707947         1.631507        -1.188116
 H         2.208469         2.204178         0.637851
 H         3.804652         1.377200         1.982072
 H         3.979579         0.027491        -1.643986
 H         4.495237        -1.428969        -0.639631
 H         1.678294        -2.446826        -1.709777
 H         2.171993        -1.009819         1.863080
