19
Iteration:  3592
 C        -0.159281         0.309992        -0.251028
 C         1.374650         0.228359        -0.033890
 C         2.366584         1.383768        -0.014559
 C         3.422710         0.349920         0.580525
 O         4.544394         0.779708         1.168086
 C         3.658500        -0.624067        -0.584884
 C         2.261123        -1.084122        -0.364988
 O         1.810718        -2.357499        -0.831624
 C         2.173997        -0.487919         1.039650
 H        -0.481065         1.190856         0.372488
 H        -0.459682         0.676448        -1.262194
 H        -0.788042        -0.653759         0.084545
 H         2.744956         2.094023        -0.817473
 H         2.096324         2.023754         0.931721
 H         4.338981         1.553993         1.821577
 H         3.950536        -0.215960        -1.587713
 H         4.352293        -1.419097        -0.271663
 H         1.727503        -2.395973        -1.820068
 H         1.975496        -1.103015         1.834367
