19
Iteration:  3925
 C        -0.126036         0.199327        -0.305394
 C         1.401191         0.153966        -0.070038
 C         2.406406         1.398188        -0.147131
 C         3.451952         0.427651         0.541976
 O         4.502272         0.640858         1.334159
 C         3.719707        -0.476777        -0.736193
 C         2.258298        -1.091526        -0.327811
 O         1.630566        -2.276331        -0.704339
 C         2.216432        -0.421271         1.061785
 H        -0.503161         1.014892         0.332871
 H        -0.406111         0.390072        -1.371225
 H        -0.691930        -0.690687        -0.054934
 H         2.822647         2.073692        -0.939718
 H         1.992267         1.991505         0.653452
 H         4.317600         1.160266         2.071953
 H         3.734217         0.041651        -1.775455
 H         4.696343        -0.967671        -0.705283
 H         2.104023        -2.657803        -1.442553
 H         2.182907        -1.043031         2.073815
