19
Iteration:  4450
 C        -0.107566         0.148159        -0.210410
 C         1.413500         0.152875        -0.003900
 C         2.374620         1.300624        -0.098464
 C         3.445569         0.375828         0.554478
 O         4.527162         0.924540         1.277599
 C         3.724819        -0.634765        -0.585141
 C         2.295926        -1.082795        -0.352656
 O         1.613271        -2.168999        -0.913155
 C         2.248366        -0.533893         1.033838
 H        -0.751875         0.896892         0.310164
 H        -0.371781         0.235294        -1.287135
 H        -0.502895        -0.778301         0.105851
 H         2.528572         1.728116        -1.047509
 H         2.114967         2.076456         0.661448
 H         4.497079         0.616880         2.146091
 H         4.027328        -0.172916        -1.612345
 H         4.513313        -1.330789        -0.335587
 H         1.341708        -1.821304        -1.796122
 H         1.930052        -0.820735         2.090757
