19
Iteration:  4105
 C        -0.115865         0.175496        -0.285709
 C         1.387045         0.175914        -0.092377
 C         2.385114         1.343840        -0.113458
 C         3.457916         0.370023         0.554696
 O         4.505119         0.834699         1.366218
 C         3.663040        -0.666205        -0.570479
 C         2.229467        -1.011617        -0.345585
 O         1.742128        -2.186530        -0.954388
 C         2.254019        -0.412487         1.098208
 H        -0.609006         1.066782         0.084541
 H        -0.522577         0.286843        -1.275476
 H        -0.702780        -0.633096         0.161540
 H         2.511481         1.887414        -1.073449
 H         2.014282         2.089981         0.587068
 H         5.300019         0.305900         1.399703
 H         3.864023        -0.335729        -1.613576
 H         4.240195        -1.627050        -0.389038
 H         1.285267        -2.806937        -0.339408
 H         1.852786        -0.866438         2.043156
