19
Iteration:  3447charge 0 multiplicity 1
 C        -0.058624         0.386721        -0.134938
 C         1.414626         0.173996        -0.031921
 C         2.433323         1.339409        -0.093112
 C         3.382606         0.369779         0.503249
 O         4.427299         0.829663         1.295855
 C         3.705457        -0.595393        -0.652839
 C         2.199071        -1.096052        -0.401684
 O         1.846072        -2.350516        -0.857840
 C         2.229358        -0.616000         1.005893
 H        -0.541080         1.066223         0.702932
 H        -0.139856         1.108365        -0.971820
 H        -0.789540        -0.459516        -0.195444
 H         2.678135         1.774566        -1.024927
 H         2.140740         2.066186         0.629828
 H         4.026097         1.570787         1.688779
 H         3.813198        -0.288405        -1.695558
 H         4.412708        -1.387406        -0.395538
 H         0.892321        -2.292749        -0.953672
 H         1.789078        -0.958435         1.988360
