19
Iteration:    94charge 0 multiplicity 1
 C        -0.187071         0.233551        -0.032906
 C         1.320544         0.193952         0.047968
 C         2.346051         1.312023         0.037803
 C         3.495081         0.377276         0.471160
 O         4.532255         0.886088         1.252203
 C         3.607547        -0.576018        -0.672082
 C         2.222268        -1.042660        -0.362451
 O         1.805676        -2.151320        -1.076822
 C         2.228775        -0.591930         1.053723
 H        -0.621098         0.742211         0.832321
 H        -0.647219         0.350051        -1.035467
 H        -0.469835        -0.808302         0.172858
 H         2.572789         1.774142        -0.979754
 H         2.098862         1.962306         0.916974
 H         5.376803         0.721548         0.745822
 H         3.962641        -0.277660        -1.702938
 H         4.414184        -1.334492        -0.528733
 H         1.722741        -2.992395        -0.541495
 H         2.095755        -1.324903         1.908693
