19
Iteration:  3476charge 0 multiplicity 1
 C        -0.125682         0.409099        -0.112398
 C         1.353923         0.186969        -0.114964
 C         2.353763         1.360843        -0.107418
 C         3.350728         0.380236         0.559916
 O         4.563793         0.760636         1.271602
 C         3.701548        -0.597373        -0.609236
 C         2.230066        -1.130175        -0.385446
 O         1.911060        -2.393651        -0.884868
 C         2.171910        -0.523875         1.041509
 H        -0.311203         1.197278         0.576991
 H        -0.314278         1.021137        -1.022321
 H        -0.813183        -0.381750        -0.058381
 H         2.541156         1.982593        -1.025351
 H         1.769461         2.081290         0.692279
 H         4.284517         1.580127         1.835820
 H         3.773494        -0.335190        -1.672561
 H         4.444181        -1.410197        -0.425033
 H         0.991493        -2.316113        -1.204500
 H         1.930080        -0.908010         1.968688
