19
Iteration:  1168charge 0 multiplicity 1
 C        -0.060570         0.353604        -0.287779
 C         1.326886         0.050432         0.081217
 C         2.217068         1.351567         0.050988
 C         3.429973         0.447440         0.476332
 O         4.470617         0.790899         1.313446
 C         3.633591        -0.512004        -0.792298
 C         2.321402        -1.083286        -0.364490
 O         1.804178        -2.299049        -0.815563
 C         2.338586        -0.658297         1.109011
 H        -0.307297         1.242194         0.344719
 H        -0.129029         0.757138        -1.393979
 H        -0.806902        -0.407944        -0.158504
 H         2.427151         1.990713        -0.844487
 H         1.898781         1.933420         0.881697
 H         5.052413         1.387830         0.776237
 H         3.507230        -0.088684        -1.811078
 H         4.366114        -1.297219        -0.537453
 H         1.208914        -2.193242        -1.557683
 H         2.220122        -1.171271         2.189746
