19
Iteration:  4135charge 0 multiplicity 1
 C         0.000434         0.263569        -0.298971
 C         1.463066         0.273763         0.074805
 C         2.430436         1.370968        -0.014930
 C         3.439545         0.345681         0.618652
 O         4.379884         1.032752         1.183674
 C         3.770601        -0.712310        -0.510252
 C         2.303333        -1.172822        -0.368021
 O         1.532495        -2.200751        -0.984142
 C         2.174921        -0.605363         1.003466
 H        -0.587235         1.087488         0.297054
 H        -0.176564         0.412448        -1.415247
 H        -0.472054        -0.649799        -0.059709
 H         2.559666         1.711518        -1.048654
 H         2.242849         2.144700         0.709805
 H         4.986765         0.691257         1.938255
 H         3.987012        -0.401650        -1.581804
 H         4.502598        -1.540499        -0.199113
 H         1.710225        -3.073195        -0.599471
 H         1.963679        -1.412642         1.822146
