19
Iteration:   177charge 0 multiplicity 1
 C        -0.129063         0.060494        -0.095903
 C         1.356021         0.206479         0.131483
 C         2.326238         1.406761        -0.020629
 C         3.496135         0.366985         0.479719
 O         4.579594         0.765424         1.284877
 C         3.684309        -0.504253        -0.733696
 C         2.218624        -0.985921        -0.440846
 O         1.710916        -2.186828        -0.927021
 C         2.274196        -0.619804         1.025858
 H        -0.745493         0.734794         0.533569
 H        -0.367393         0.353352        -1.097857
 H        -0.457788        -0.981328         0.103852
 H         2.462682         1.893388        -0.969676
 H         2.185523         2.164625         0.695112
 H         4.575827         1.640437         1.633089
 H         3.851146         0.059851        -1.607368
 H         4.395605        -1.284845        -0.523468
 H         0.850370        -2.105753        -1.366856
 H         2.204920        -1.475544         1.841579
