19
Iteration:  3131
 C        -0.145197         0.201507        -0.152239
 C         1.379049         0.241254        -0.190815
 C         2.429903         1.425680        -0.118151
 C         3.421596         0.375311         0.527256
 O         4.547698         0.698062         1.336222
 C         3.704005        -0.587982        -0.631132
 C         2.269984        -1.068898        -0.375645
 O         1.744219        -2.300900        -0.762407
 C         2.168580        -0.428507         0.941279
 H        -0.523380         1.183015         0.348773
 H        -0.670537        -0.021675        -1.093925
 H        -0.372958        -0.654261         0.547605
 H         2.452548         1.934636        -1.062695
 H         1.888750         2.116895         0.677776
 H         4.321759         1.185809         2.219438
 H         3.970553        -0.219684        -1.666819
 H         4.468590        -1.350848        -0.334202
 H         1.590754        -2.191628        -1.723128
 H         1.789567        -0.815685         2.017369
