19
Iteration:   941
 C        -0.056178         0.156030        -0.021625
 C         1.401977         0.092521        -0.096790
 C         2.344079         1.320903         0.064856
 C         3.435673         0.404989         0.595279
 O         4.422372         1.066618         1.313670
 C         3.696717        -0.682337        -0.635028
 C         2.245521        -1.097934        -0.510127
 O         1.549704        -2.100619        -1.087359
 C         2.394605        -0.636455         1.042594
 H        -0.380532         0.687197         0.931467
 H        -0.508754         0.496711        -0.980113
 H        -0.431758        -0.836556         0.063017
 H         2.601421         2.072801        -0.735934
 H         2.011918         1.935727         1.025741
 H         5.230059         0.440196         1.351860
 H         4.014298        -0.306081        -1.615262
 H         4.391974        -1.496592        -0.274757
 H         2.078080        -2.793363        -1.522213
 H         2.191860        -0.905464         1.975985
