19
Iteration:  3265charge 0 multiplicity 1
 C        -0.104571         0.165382        -0.180402
 C         1.411577         0.185077         0.023914
 C         2.335785         1.400815        -0.176043
 C         3.394201         0.448451         0.481019
 O         4.591224         0.738720         1.261076
 C         3.737598        -0.645119        -0.479355
 C         2.264205        -1.039814        -0.362209
 O         1.727107        -2.230255        -0.931988
 C         2.165477        -0.482317         1.052860
 H        -0.659738         0.646020         0.598731
 H        -0.408450         0.753343        -1.102358
 H        -0.470406        -0.914006        -0.213082
 H         2.705838         1.657653        -1.076163
 H         2.063715         2.335643         0.411290
 H         4.301860         1.427404         1.962078
 H         4.007863        -0.489167        -1.582119
 H         4.418834        -1.399973        -0.068923
 H         0.828863        -2.142536        -1.333210
 H         1.989784        -0.974440         1.937964
