19
Iteration:  4189
 C        -0.059646         0.214465        -0.276920
 C         1.408921         0.315543         0.036939
 C         2.465107         1.451706        -0.139849
 C         3.384911         0.387373         0.501695
 O         4.400137         0.819163         1.287762
 C         3.750656        -0.649830        -0.607183
 C         2.228949        -1.124666        -0.350279
 O         1.685909        -2.262998        -0.847467
 C         2.087114        -0.491135         1.066118
 H        -0.614518         0.536358         0.679719
 H        -0.213135         0.903205        -1.172195
 H        -0.326525        -0.788758        -0.539818
 H         2.767781         1.810754        -1.167525
 H         2.130867         2.277452         0.549430
 H         5.067857         0.070417         1.458016
 H         3.992053        -0.232369        -1.592005
 H         4.557431        -1.351532        -0.386438
 H         2.274245        -2.997874        -0.663075
 H         2.093542        -0.930686         2.143166
