19
Iteration:   396
 C        -0.099702         0.204961        -0.013652
 C         1.377209         0.175251        -0.134498
 C         2.364461         1.379927         0.017433
 C         3.459484         0.327135         0.512206
 O         4.465477         0.911585         1.436590
 C         3.759780        -0.549320        -0.787330
 C         2.224285        -0.997034        -0.477376
 O         1.617665        -2.289879        -0.927644
 C         2.244662        -0.589720         0.958961
 H        -0.487701         0.660972         0.923213
 H        -0.503516         0.638954        -0.936911
 H        -0.500609        -0.841042        -0.016071
 H         2.606988         2.080734        -0.870432
 H         2.042055         1.949856         0.907055
 H         5.309901         0.807086         0.943785
 H         4.051088         0.052020        -1.804255
 H         4.454494        -1.421894        -0.740203
 H         2.012017        -2.829415        -0.177850
 H         2.026369        -1.026387         1.835592
