19
Iteration:  3288charge 0 multiplicity 1
 C        -0.111184         0.274887        -0.160246
 C         1.433781         0.184762        -0.047333
 C         2.393254         1.384206        -0.151939
 C         3.359436         0.346752         0.504991
 O         4.502214         0.774891         1.284102
 C         3.653383        -0.627894        -0.617088
 C         2.242412        -1.034514        -0.365262
 O         1.823537        -2.305077        -0.846436
 C         2.222146        -0.514797         1.026839
 H        -0.382074         1.131813         0.433072
 H        -0.521591         0.605020        -1.183664
 H        -0.598478        -0.630992         0.306399
 H         2.677077         1.778299        -1.054362
 H         2.109849         2.226188         0.548656
 H         4.190526         1.123107         2.121637
 H         3.933255         0.053826        -1.474599
 H         4.426013        -1.399078        -0.421544
 H         1.092698        -2.203818        -1.458084
 H         1.864720        -0.943650         2.016812
