19
Iteration:  4719charge 0 multiplicity 1
 C        -0.052871         0.166041        -0.266870
 C         1.415377         0.200231         0.034145
 C         2.354312         1.423902         0.028724
 C         3.494429         0.423037         0.565534
 O         4.565465         0.837943         1.273975
 C         3.639821        -0.509713        -0.641500
 C         2.249027        -1.092145        -0.380590
 O         1.665132        -2.292283        -0.942673
 C         2.219855        -0.674054         1.089848
 H        -0.622286         0.917606         0.290625
 H        -0.309059         0.233004        -1.336488
 H        -0.459524        -0.822549        -0.034571
 H         2.500409         1.905191        -0.978726
 H         1.932060         2.170080         0.724408
 H         4.227913         1.577209         1.834591
 H         3.987293         0.182695        -1.517651
 H         4.420388        -1.329209        -0.473819
 H         1.253952        -2.092819        -1.801937
 H         1.861220        -1.297583         1.964370
