19
Iteration:  2172charge 0 multiplicity 1
 C         0.032597         0.090283        -0.301820
 C         1.439239         0.213131        -0.046886
 C         2.393176         1.354680        -0.082058
 C         3.421482         0.319216         0.533762
 O         4.527502         0.818042         1.380998
 C         3.654814        -0.625959        -0.602926
 C         2.161916        -1.040072        -0.372680
 O         1.534729        -2.126340        -0.935640
 C         2.226511        -0.456246         1.118471
 H        -0.598498         0.838981         0.050124
 H         0.060946        -0.064988        -1.354517
 H        -0.355455        -0.871270         0.105492
 H         2.789271         1.797243        -1.077060
 H         2.052291         2.126209         0.588101
 H         4.851776         1.790288         1.356694
 H         4.009495        -0.270148        -1.581401
 H         4.352631        -1.433502        -0.173707
 H         2.159620        -2.863424        -0.910715
 H         2.026225        -0.943641         2.043090
