19
Iteration:   381charge 0 multiplicity 1
 C        -0.078293         0.237012        -0.085848
 C         1.453757         0.146482        -0.031218
 C         2.423564         1.304592         0.087661
 C         3.434410         0.371179         0.508588
 O         4.374164         0.966560         1.344611
 C         3.651834        -0.587099        -0.773732
 C         2.318918        -1.146693        -0.441548
 O         1.631097        -2.176374        -0.954560
 C         2.299797        -0.636031         0.956506
 H        -0.347466         1.014137         0.648706
 H        -0.594324         0.772331        -0.933901
 H        -0.484609        -0.777072         0.157472
 H         2.651015         1.949762        -0.770560
 H         2.097556         1.875769         1.036113
 H         5.225539         1.157432         0.995432
 H         3.686519        -0.054436        -1.742671
 H         4.486252        -1.280622        -0.599652
 H         1.541397        -3.014254        -0.521126
 H         1.914335        -1.127373         1.957506
