19
Iteration:  1550charge 0 multiplicity 1
 C        -0.056392         0.190879        -0.280939
 C         1.449611         0.119175         0.054078
 C         2.332010         1.324512        -0.040498
 C         3.440253         0.420565         0.456608
 O         4.549998         0.888919         1.375427
 C         3.729131        -0.614527        -0.631070
 C         2.294849        -1.074034        -0.408842
 O         1.425238        -2.142249        -0.965110
 C         2.370273        -0.597141         1.032521
 H        -0.578358         0.912892         0.531998
 H        -0.264376         0.553866        -1.365424
 H        -0.604355        -0.816510        -0.158786
 H         2.541909         1.757489        -1.034864
 H         2.170049         2.105377         0.662983
 H         4.210368         1.451258         2.121811
 H         4.244911        -0.116350        -1.489309
 H         4.456884        -1.348225        -0.196014
 H         1.764087        -2.990642        -0.665903
 H         2.047371        -1.255859         1.958517
