19
Iteration:  1630
 C        -0.193692         0.302200        -0.127797
 C         1.387871         0.166314        -0.063797
 C         2.360347         1.373929        -0.083437
 C         3.405596         0.442594         0.487178
 O         4.481005         0.609862         1.300786
 C         3.726201        -0.602966        -0.617573
 C         2.301069        -1.013772        -0.376563
 O         1.891118        -2.262946        -0.872348
 C         2.126663        -0.525552         1.036752
 H        -0.422552         1.193749         0.610157
 H        -0.395106         0.821381        -1.112583
 H        -0.756735        -0.621870        -0.003811
 H         2.718491         1.715814        -1.104769
 H         1.935231         2.119950         0.535445
 H         4.555821         1.569746         1.594714
 H         3.945388        -0.216582        -1.641348
 H         4.459375        -1.300181        -0.168554
 H         1.109019        -2.142076        -1.401979
 H         1.850406        -0.989668         1.901336
