19
Iteration:  4955charge 0 multiplicity 1
 C        -0.132958         0.439955        -0.201537
 C         1.335687         0.126964        -0.059048
 C         2.313925         1.303685         0.112975
 C         3.413951         0.418930         0.555044
 O         4.462713         0.960454         1.348785
 C         3.632210        -0.564689        -0.577894
 C         2.295186        -1.097265        -0.503906
 O         1.843058        -2.430630        -0.941731
 C         2.243121        -0.656351         1.008990
 H        -0.381141         0.999075         0.673332
 H        -0.382792         0.993467        -1.082598
 H        -0.666472        -0.582353        -0.165622
 H         2.389693         1.921094        -0.864982
 H         2.253669         2.026595         0.952008
 H         5.304558         1.117230         0.852403
 H         4.008322        -0.375812        -1.613937
 H         4.368706        -1.357123        -0.237196
 H         1.325518        -2.302049        -1.775024
 H         1.986624        -1.149420         1.858045
