19
Iteration:  4608charge 0 multiplicity 1
 C        -0.138917         0.023101        -0.233054
 C         1.422996         0.230039        -0.069450
 C         2.330237         1.431695         0.004146
 C         3.436171         0.401503         0.497415
 O         4.552478         0.726823         1.316187
 C         3.775168        -0.597739        -0.598870
 C         2.286628        -0.988650        -0.460746
 O         1.592647        -2.169502        -0.793606
 C         2.262566        -0.540021         0.977966
 H        -0.578845         0.312160         0.706488
 H        -0.573020         0.612876        -1.025855
 H        -0.246030        -1.109239        -0.359074
 H         2.624684         2.092112        -0.815997
 H         2.138483         2.177560         0.760636
 H         4.295642         1.624416         1.619389
 H         4.263600        -0.224981        -1.630202
 H         4.501243        -1.401571        -0.131784
 H         1.213859        -2.163692        -1.694117
 H         1.855307        -0.930753         1.921526
