19
Iteration:  1462
 C        -0.101850         0.413407        -0.106642
 C         1.353092         0.154070        -0.022887
 C         2.334471         1.306161        -0.041311
 C         3.375018         0.441410         0.494210
 O         4.458451         0.815417         1.231305
 C         3.741747        -0.626303        -0.648382
 C         2.292456        -1.134993        -0.374678
 O         1.832114        -2.315222        -0.894474
 C         2.214541        -0.622971         1.017833
 H        -0.321264         1.334334         0.510925
 H        -0.364783         0.834023        -1.073919
 H        -0.716748        -0.438383         0.144429
 H         2.437072         1.911488        -0.966253
 H         2.167067         1.944246         0.828123
 H         4.181104         1.215921         2.133169
 H         3.972837        -0.115447        -1.586918
 H         4.546927        -1.348423        -0.499330
 H         1.163708        -2.047599        -1.517018
 H         2.090994        -1.047140         1.934277
