19
Iteration:  3418charge 0 multiplicity 1
 C        -0.117982         0.205942        -0.204584
 C         1.408718         0.130482        -0.053147
 C         2.395386         1.322277        -0.057473
 C         3.468445         0.437772         0.490691
 O         4.574180         0.863412         1.309684
 C         3.756641        -0.666905        -0.554690
 C         2.227876        -1.018459        -0.389507
 O         1.657451        -2.244165        -0.915527
 C         2.231676        -0.527801         0.998361
 H        -0.525866         0.667928         0.634374
 H        -0.361464         0.656843        -1.172930
 H        -0.701650        -0.769969        -0.259863
 H         2.599931         1.801735        -1.142251
 H         2.053268         2.116478         0.756553
 H         4.154610         1.473495         1.916697
 H         4.022041        -0.512645        -1.633457
 H         4.406898        -1.401142        -0.064209
 H         0.691323        -2.022988        -0.922331
 H         1.831404        -1.090789         1.939421
