19
Iteration:  4875
 C        -0.058045         0.028216        -0.181734
 C         1.406666         0.244101        -0.081783
 C         2.398847         1.457013        -0.002672
 C         3.453347         0.367105         0.548819
 O         4.549133         0.781924         1.317259
 C         3.680536        -0.551340        -0.587525
 C         2.262842        -1.060534        -0.465399
 O         1.713131        -2.211784        -0.880601
 C         2.133164        -0.491826         0.974266
 H        -0.700614         0.774261         0.335277
 H        -0.374755        -0.102613        -1.233921
 H        -0.243147        -0.911924         0.281568
 H         2.682783         2.072509        -0.955085
 H         2.075895         2.040091         0.850343
 H         4.175588         1.026897         2.171466
 H         3.865246        -0.010338        -1.534599
 H         4.354880        -1.338301        -0.441764
 H         1.119613        -1.905369        -1.609961
 H         1.841782        -1.250727         1.820056
