19
Iteration:     1
 C        -0.096308         0.122873        -0.030651
 C         1.400626         0.138023         0.053882
 C         2.318325         1.366031         0.050469
 C         3.437730         0.394345         0.503387
 O         4.574106         0.813184         1.171395
 C         3.659207        -0.525448        -0.720196
 C         2.254196        -1.042971        -0.424300
 O         1.621893        -2.130839        -0.991504
 C         2.304123        -0.608386         1.026458
 H        -0.546242         0.727510         0.764776
 H        -0.440800         0.524743        -0.990686
 H        -0.478538        -0.897856         0.053915
 H         2.474687         1.923166        -0.881486
 H         2.033954         2.058464         0.852525
 H         4.307910         1.416867         1.873183
 H         3.867998        -0.047814        -1.684106
 H         4.419908        -1.280887        -0.497816
 H         2.097627        -2.926700        -0.729996
 H         2.106121        -1.117295         1.959318
