19
Iteration:   857
 C        -0.042422         0.104401        -0.083639
 C         1.450926         0.213504        -0.001869
 C         2.349171         1.442129         0.226800
 C         3.411286         0.366070         0.506335
 O         4.362620         0.817892         1.313965
 C         3.726392        -0.443952        -0.848693
 C         2.328014        -1.069217        -0.509318
 O         1.591754        -2.233057        -0.912755
 C         2.286477        -0.626120         0.916685
 H        -0.612846         0.702857         0.667694
 H        -0.338926         0.464444        -1.060135
 H        -0.321967        -0.943830         0.060663
 H         2.650135         2.216569        -0.534164
 H         2.076966         2.039697         1.017514
 H         5.262012         0.609087         1.195108
 H         3.788829         0.027356        -1.850602
 H         4.685576        -0.985587        -0.765442
 H         1.757343        -2.998714        -0.331752
 H         1.967052        -0.900109         1.819400
