19
Iteration:  1869
 C        -0.019464         0.197589        -0.367744
 C         1.401018         0.209088         0.065648
 C         2.413026         1.365557        -0.013918
 C         3.413738         0.380516         0.574729
 O         4.583295         0.901843         1.123629
 C         3.662072        -0.672431        -0.567615
 C         2.248625        -1.062897        -0.241705
 O         1.694333        -2.161468        -1.025335
 C         2.128370        -0.602005         1.171144
 H        -0.728600         0.800731         0.220141
 H        -0.182138         0.280255        -1.470011
 H        -0.497707        -0.725302        -0.194032
 H         2.774644         1.991073        -0.941267
 H         2.208859         2.126785         0.897069
 H         4.573132         0.723015         2.100431
 H         3.786200        -0.306203        -1.619464
 H         4.313793        -1.570639        -0.225680
 H         0.783389        -2.177259        -0.754509
 H         1.878947        -1.337233         2.077842
