19
Iteration:  4175charge 0 multiplicity 1
 C        -0.057762         0.276275        -0.302390
 C         1.422222         0.127527        -0.075938
 C         2.348131         1.374785        -0.124100
 C         3.422094         0.388728         0.539536
 O         4.508804         0.952192         1.353488
 C         3.667571        -0.698238        -0.587122
 C         2.271032        -1.103928        -0.311401
 O         1.575547        -2.250666        -0.906431
 C         2.280507        -0.487858         1.083536
 H        -0.640743         0.723492         0.508319
 H        -0.268178         0.947733        -1.156847
 H        -0.481205        -0.710418        -0.536142
 H         2.574176         1.844176        -1.101659
 H         2.132491         2.223813         0.608438
 H         4.934072         0.192980         1.687369
 H         3.972728        -0.304742        -1.548120
 H         4.348668        -1.416881        -0.223832
 H         2.258329        -2.954828        -0.984557
 H         1.880149        -0.860756         2.049068
