19
Iteration:  3585
 C        -0.119458         0.307201        -0.260545
 C         1.342087         0.210551        -0.097955
 C         2.375641         1.372040         0.013027
 C         3.408796         0.328948         0.515324
 O         4.541121         0.785180         1.190000
 C         3.683213        -0.645800        -0.584685
 C         2.237165        -1.038747        -0.305706
 O         1.773049        -2.261144        -0.808294
 C         2.229503        -0.544943         1.048134
 H        -0.631512         1.038399         0.351011
 H        -0.423643         0.476989        -1.355436
 H        -0.499603        -0.655839         0.131243
 H         2.577448         1.991785        -0.893972
 H         2.073272         1.958951         0.790242
 H         4.296467         1.603605         1.736416
 H         3.857649        -0.097296        -1.493624
 H         4.339288        -1.490967        -0.313344
 H         1.849449        -2.387077        -1.784423
 H         1.969353        -1.270709         1.914466
