19
Iteration:   723
 C        -0.046717         0.149393         0.015463
 C         1.415289         0.106058         0.074835
 C         2.298979         1.277237        -0.050458
 C         3.499296         0.423300         0.383725
 O         4.343795         0.829964         1.413792
 C         3.752400        -0.502059        -0.812894
 C         2.254736        -1.043374        -0.441085
 O         1.647405        -2.072871        -0.980443
 C         2.348065        -0.556613         0.971335
 H        -0.577987         1.006749         0.530616
 H        -0.401834         0.504127        -0.978486
 H        -0.434838        -0.779650         0.391597
 H         2.272466         1.778059        -1.035694
 H         2.056921         1.930955         0.835906
 H         4.513612        -0.017131         1.820958
 H         3.942327        -0.020485        -1.792706
 H         4.581462        -1.314739        -0.704262
 H         1.971806        -2.961362        -0.662293
 H         2.260254        -1.045730         2.081587
