19
Iteration:  1511charge 0 multiplicity 1
 C        -0.110979         0.115471        -0.320205
 C         1.347244         0.246530         0.003424
 C         2.436069         1.407700         0.068927
 C         3.443633         0.371200         0.514392
 O         4.602068         0.668214         1.166116
 C         3.619571        -0.509360        -0.640487
 C         2.236099        -1.067163        -0.287532
 O         1.807136        -2.161902        -0.924015
 C         2.117353        -0.543106         1.088374
 H        -0.725694         0.758075         0.209895
 H        -0.422967         0.380251        -1.300500
 H        -0.249077        -0.921795        -0.087364
 H         2.705483         1.974593        -0.861097
 H         2.145737         2.060237         0.951894
 H         4.180317         1.394082         1.575219
 H         3.873505        -0.056610        -1.612387
 H         4.452989        -1.177882        -0.403039
 H         0.975743        -2.385913        -0.411559
 H         1.773367        -0.957444         2.054252
