19
Iteration:   596
 C        -0.060663         0.179521        -0.024415
 C         1.425575         0.233264        -0.034970
 C         2.340090         1.384122        -0.014304
 C         3.454438         0.360773         0.525056
 O         4.421666         0.961043         1.321425
 C         3.719701        -0.577005        -0.718202
 C         2.250803        -1.099388        -0.465722
 O         1.600260        -2.206178        -0.968459
 C         2.305047        -0.625003         0.951036
 H        -0.459550         0.575776         0.900528
 H        -0.501133         0.629989        -0.891228
 H        -0.381075        -0.824579        -0.132147
 H         2.550467         2.029521        -0.880932
 H         2.055871         2.060046         0.737849
 H         4.901467         0.263451         1.873263
 H         4.085996        -0.129261        -1.658593
 H         4.359104        -1.380790        -0.504620
 H         2.004821        -3.007578        -0.598290
 H         2.117883        -1.128336         1.993147
