19
Iteration:  1728
 C        -0.194183         0.252895        -0.235012
 C         1.368547         0.199616        -0.009588
 C         2.417920         1.440560        -0.003477
 C         3.418286         0.369503         0.559704
 O         4.558389         0.850035         1.345358
 C         3.697225        -0.671180        -0.574829
 C         2.210678        -1.081050        -0.364853
 O         1.762276        -2.264962        -0.942125
 C         2.173662        -0.543956         1.026649
 H        -0.598265         1.089559         0.454985
 H        -0.376208         0.214671        -1.326325
 H        -0.584449        -0.677608         0.161632
 H         2.830722         1.714985        -1.009720
 H         2.140593         2.279323         0.550801
 H         5.347266         0.655365         0.754016
 H         3.731612        -0.204224        -1.545883
 H         4.309065        -1.529356        -0.275426
 H         1.441599        -2.099613        -1.829909
 H         1.835421        -0.971712         1.960636
