19
Iteration:   411
 C        -0.141655         0.141402        -0.022335
 C         1.399850         0.224619        -0.013747
 C         2.330534         1.417696        -0.063162
 C         3.477921         0.464081         0.510951
 O         4.474299         0.741264         1.402700
 C         3.675778        -0.494804        -0.680153
 C         2.232192        -1.019798        -0.585119
 O         1.679249        -2.266018        -0.864620
 C         2.269908        -0.525659         0.878057
 H        -0.452899         0.433512         0.997017
 H        -0.608916         0.687649        -0.854662
 H        -0.523571        -0.849043        -0.140921
 H         2.503076         1.942427        -1.001644
 H         2.085134         2.231109         0.592239
 H         5.347868         0.422039         1.001018
 H         4.068056        -0.080019        -1.562977
 H         4.347931        -1.288394        -0.226559
 H         2.183881        -2.981610        -0.421342
 H         1.963563        -1.176489         1.830004
