19
Iteration:  4109charge 0 multiplicity 1
 C        -0.127241         0.185969        -0.287491
 C         1.419188         0.176182        -0.056216
 C         2.398701         1.342784        -0.119187
 C         3.474192         0.394124         0.571683
 O         4.479690         0.868019         1.346013
 C         3.669579        -0.679669        -0.578645
 C         2.203133        -1.008445        -0.358441
 O         1.730814        -2.190469        -0.967133
 C         2.235559        -0.463899         1.105120
 H        -0.567457         1.095953         0.156969
 H        -0.379294         0.219330        -1.390293
 H        -0.700469        -0.701431         0.159211
 H         2.491952         1.839489        -1.109210
 H         2.201949         2.121971         0.729793
 H         5.272151         0.252011         1.425310
 H         3.961026        -0.405045        -1.580067
 H         4.140210        -1.597407        -0.370775
 H         1.359682        -2.786235        -0.311751
 H         1.889697        -0.804696         2.023218
