19
Iteration:  1671charge 0 multiplicity 1
 C        -0.061316         0.192301        -0.325045
 C         1.416137         0.105768         0.003863
 C         2.474660         1.434063         0.054930
 C         3.460079         0.381647         0.488640
 O         4.547476         0.974811         1.371350
 C         3.707050        -0.630390        -0.713466
 C         2.273678        -1.129371        -0.375787
 O         1.524489        -2.268264        -0.922353
 C         2.263661        -0.602812         1.025367
 H        -0.716325         0.876817         0.239674
 H        -0.282177         0.528602        -1.347368
 H        -0.490387        -0.789373        -0.178208
 H         2.789787         2.072120        -0.773879
 H         2.254161         2.032468         0.920395
 H         4.159716         1.048667         2.215240
 H         4.012453        -0.268509        -1.682997
 H         4.525496        -1.330688        -0.436537
 H         0.559379        -2.071502        -0.897082
 H         1.948251        -0.991275         1.970107
