19
Iteration:  1977
 C        -0.151825         0.334675        -0.187596
 C         1.362663         0.131266        -0.037727
 C         2.375370         1.307915        -0.102137
 C         3.474199         0.335675         0.561079
 O         4.550272         0.839043         1.197652
 C         3.727667        -0.714943        -0.488418
 C         2.252371        -1.082354        -0.281388
 O         1.792146        -2.178309        -1.073008
 C         2.163060        -0.528798         1.111281
 H        -0.395416         1.292792         0.254251
 H        -0.291651         0.496637        -1.321103
 H        -0.654236        -0.644113         0.113987
 H         2.508374         1.693194        -1.066940
 H         2.014709         2.092179         0.597067
 H         4.105130         1.425808         1.919582
 H         4.084465        -0.192499        -1.335281
 H         4.372491        -1.524790        -0.067680
 H         0.847794        -2.422431        -1.026228
 H         1.813288        -0.766308         2.146115
