19
Iteration:  4527
 C        -0.116607         0.342530        -0.166039
 C         1.355202         0.195335        -0.036259
 C         2.311569         1.386689        -0.022661
 C         3.396165         0.457252         0.558370
 O         4.573402         0.787474         1.278397
 C         3.684381        -0.521014        -0.581764
 C         2.199024        -1.067117        -0.467271
 O         1.826322        -2.399966        -0.833230
 C         2.230744        -0.679142         0.927423
 H        -0.620441         1.040469         0.574779
 H        -0.471079         0.649087        -1.176523
 H        -0.651794        -0.567244        -0.062340
 H         2.679765         1.841788        -0.905392
 H         2.004021         2.106811         0.802939
 H         4.533488         1.681115         1.749561
 H         4.098012        -0.175336        -1.585427
 H         4.194057        -1.403726        -0.188455
 H         1.505426        -2.302519        -1.740169
 H         1.928205        -1.028339         1.986064
