19
Iteration:  1279
 C        -0.097092         0.094232        -0.013984
 C         1.406960         0.166083        -0.030137
 C         2.372952         1.350786        -0.184094
 C         3.432631         0.350714         0.512821
 O         4.498726         0.808314         1.228017
 C         3.665057        -0.586635        -0.602495
 C         2.254902        -0.993082        -0.362016
 O         1.726373        -2.123332        -0.911019
 C         2.235517        -0.524262         1.072476
 H        -0.661397         0.802627         0.625907
 H        -0.514155         0.357377        -1.068942
 H        -0.198055        -0.969074         0.160201
 H         2.726214         1.648933        -1.104672
 H         2.166612         2.152101         0.470465
 H         4.235529         0.825289         2.156017
 H         3.935189        -0.127517        -1.604279
 H         4.304994        -1.452133        -0.298868
 H         1.794174        -2.132062        -1.903139
 H         1.674685        -0.926505         1.902725
