19
Iteration:  3414
 C        -0.091798         0.177135        -0.215020
 C         1.394427         0.092729        -0.030385
 C         2.390155         1.363902        -0.086497
 C         3.445755         0.408347         0.500016
 O         4.577377         0.854874         1.281620
 C         3.741878        -0.667759        -0.560565
 C         2.247453        -1.005993        -0.360245
 O         1.650711        -2.198088        -0.912087
 C         2.220991        -0.538677         0.997174
 H        -0.525916         0.699798         0.726586
 H        -0.317072         0.542552        -1.218790
 H        -0.642852        -0.808626        -0.283321
 H         2.710737         1.883796        -0.990361
 H         2.136162         1.972348         0.680845
 H         4.167910         1.476024         1.985902
 H         4.118772        -0.480341        -1.568374
 H         4.357513        -1.368938         0.014301
 H         0.703026        -2.016545        -0.969255
 H         1.779398        -0.938005         1.888679
