19
Iteration:  4788charge 0 multiplicity 1
 C        -0.138350         0.255587        -0.143013
 C         1.382452         0.167863        -0.137909
 C         2.387094         1.366808         0.075277
 C         3.440465         0.363756         0.532753
 O         4.454799         0.820080         1.352829
 C         3.755411        -0.540758        -0.663397
 C         2.257632        -1.032705        -0.445884
 O         1.728762        -2.302055        -0.859316
 C         2.201425        -0.591732         0.991522
 H        -0.366452         0.302085         0.934842
 H        -0.651478         0.978066        -0.778511
 H        -0.449516        -0.693276        -0.526434
 H         2.770202         1.930363        -0.842047
 H         2.032595         1.994718         0.851049
 H         4.423535         1.733308         1.296467
 H         4.044467        -0.069509        -1.749728
 H         4.432309        -1.361029        -0.462196
 H         1.776798        -2.306718        -1.846139
 H         1.929545        -1.239615         1.839531
