19
Iteration:  3436
 C        -0.106856         0.395765        -0.179357
 C         1.373584         0.165308        -0.018378
 C         2.363990         1.414211        -0.133299
 C         3.417845         0.302553         0.574483
 O         4.494170         0.884263         1.328064
 C         3.706283        -0.668866        -0.671667
 C         2.278251        -1.100484        -0.408250
 O         1.744049        -2.356216        -0.892083
 C         2.253785        -0.560623         1.009305
 H        -0.497566         0.804009         0.834183
 H        -0.447495         0.835706        -1.121884
 H        -0.539356        -0.646722        -0.292617
 H         2.731993         1.899947        -0.987220
 H         2.133267         2.118581         0.589072
 H         4.184891         1.619985         1.834488
 H         4.167564        -0.088279        -1.454869
 H         4.356531        -1.495598        -0.366095
 H         0.762142        -2.347646        -0.945570
 H         2.213467        -1.102657         1.975637
