19
Iteration:  4193charge 0 multiplicity 1
 C        -0.071104         0.214245        -0.274209
 C         1.387846         0.326414         0.039380
 C         2.494364         1.432602        -0.123970
 C         3.414544         0.375176         0.512164
 O         4.374274         0.787897         1.273598
 C         3.719268        -0.610866        -0.604968
 C         2.263978        -1.076661        -0.332601
 O         1.699279        -2.270903        -0.839365
 C         2.075514        -0.501612         1.030293
 H        -0.591375         0.521959         0.618992
 H        -0.263602         0.884755        -1.085968
 H        -0.228430        -0.883967        -0.505300
 H         2.730033         1.820843        -1.112357
 H         2.228653         2.277413         0.459632
 H         4.986603         0.086997         1.331946
 H         3.966930        -0.302866        -1.677320
 H         4.572470        -1.365279        -0.312978
 H         2.290685        -2.992355        -0.506735
 H         2.016705        -0.794200         2.010092
