19
Iteration:  1532charge 0 multiplicity 1
 C        -0.005183         0.080493        -0.296595
 C         1.457669         0.158678         0.044881
 C         2.353297         1.422087        -0.014474
 C         3.464638         0.397067         0.582868
 O         4.544309         0.791931         1.307528
 C         3.660616        -0.598793        -0.675191
 C         2.207750        -1.054453        -0.347970
 O         1.558661        -2.120958        -0.985215
 C         2.285642        -0.558143         1.053924
 H        -0.611468         0.804887         0.195757
 H        -0.042049         0.459804        -1.286463
 H        -0.211582        -0.927597        -0.243819
 H         2.500139         1.899878        -1.054279
 H         1.982789         2.129543         0.761655
 H         4.257498         1.532170         1.898897
 H         3.779882        -0.390501        -1.730431
 H         4.432775        -1.362024        -0.569787
 H         1.211402        -2.709171        -0.325003
 H         2.273859        -0.905746         2.142282
