19
Iteration:  1401
 C        -0.098246         0.039713        -0.081464
 C         1.391287         0.192554        -0.115245
 C         2.419058         1.413339        -0.052715
 C         3.404997         0.410364         0.463679
 O         4.438815         0.789129         1.321531
 C         3.803222        -0.694301        -0.578784
 C         2.311089        -1.035315        -0.371296
 O         1.578976        -2.096411        -0.885047
 C         2.194066        -0.509192         0.969961
 H        -0.434813         0.405210         0.939470
 H        -0.606376         0.512293        -1.045454
 H        -0.380784        -1.097132        -0.099017
 H         2.600561         1.956562        -0.999680
 H         2.226220         2.103071         0.819392
 H         5.080058         1.495229         0.986300
 H         4.144682        -0.375579        -1.597534
 H         4.426218        -1.407650        -0.000282
 H         1.939084        -2.352163        -1.737056
 H         1.918059        -0.698932         2.060557
