19
Iteration:   433charge 0 multiplicity 1
 C        -0.144761         0.103094        -0.066083
 C         1.380833         0.215086        -0.033379
 C         2.288379         1.445287        -0.103505
 C         3.373840         0.415480         0.492012
 O         4.445648         0.638730         1.289715
 C         3.717465        -0.533235        -0.703287
 C         2.304538        -1.004943        -0.330879
 O         1.763397        -2.142145        -0.944523
 C         2.268810        -0.449291         1.083302
 H        -0.483364         0.358641         0.961081
 H        -0.510804         0.746651        -0.888302
 H        -0.554091        -0.852432        -0.328123
 H         2.514026         1.947840        -1.060322
 H         2.125446         2.307467         0.550130
 H         5.168550         0.155512         0.953260
 H         3.803552        -0.102088        -1.693408
 H         4.329787        -1.453680        -0.440336
 H         2.251036        -2.951601        -0.698198
 H         2.049487        -0.962513         2.180200
