19
Iteration:   275
 C        -0.114277         0.181204        -0.005809
 C         1.367685         0.184380        -0.031828
 C         2.295708         1.334680        -0.016751
 C         3.410634         0.412961         0.486430
 O         4.436084         0.747826         1.467395
 C         3.738816        -0.529930        -0.829203
 C         2.348005        -1.095687        -0.468812
 O         1.615761        -2.125792        -0.891971
 C         2.361863        -0.545104         0.893581
 H        -0.492861         0.689426         0.875287
 H        -0.489158         0.549982        -0.944430
 H        -0.586526        -0.831789         0.079373
 H         2.442203         1.749373        -1.031938
 H         2.002732         2.151187         0.692422
 H         5.079135         1.300441         1.052048
 H         3.831827        -0.122497        -1.825637
 H         4.552739        -1.173230        -0.588439
 H         1.942109        -2.991053        -0.644009
 H         2.293180        -1.152541         1.917585
