19
Iteration:  3842charge 0 multiplicity 1
 C        -0.019974         0.181059        -0.206972
 C         1.433095         0.110749        -0.007186
 C         2.348794         1.320106        -0.186683
 C         3.493881         0.394859         0.571142
 O         4.612266         0.921046         1.232472
 C         3.632286        -0.709645        -0.463666
 C         2.231099        -1.154615        -0.317329
 O         1.700761        -2.190343        -1.072441
 C         2.114496        -0.445358         1.164926
 H        -0.511659         0.744719         0.673274
 H        -0.124193         0.781587        -1.141085
 H        -0.596046        -0.737545        -0.115357
 H         2.566827         1.559963        -1.230795
 H         2.060986         2.233672         0.397112
 H         4.348053         1.541204         2.017804
 H         3.857647        -0.385159        -1.499353
 H         4.274623        -1.497039         0.041575
 H         0.805058        -2.049283        -1.446539
 H         1.830678        -0.824144         2.204002
