19
Iteration:  3001charge 0 multiplicity 1
 C        -0.097945         0.265826        -0.180316
 C         1.392345         0.180979        -0.157146
 C         2.381071         1.421267        -0.089982
 C         3.440236         0.347770         0.492609
 O         4.478494         0.699820         1.375533
 C         3.622358        -0.515333        -0.803969
 C         2.274748        -1.033251        -0.408400
 O         1.774227        -2.306608        -0.680062
 C         2.271487        -0.490968         1.032112
 H        -0.466199         0.733953         0.712396
 H        -0.398357         0.659366        -1.175800
 H        -0.652609        -0.704244        -0.145593
 H         2.627693         2.093147        -0.989522
 H         2.170419         2.032411         0.765251
 H         4.094111         0.902840         2.198030
 H         3.584543         0.107130        -1.678948
 H         4.200693        -1.433259        -0.688339
 H         1.934475        -2.571076        -1.623556
 H         1.771217        -0.804574         2.003209
