19
Iteration:   478charge 0 multiplicity 1
 C        -0.055220         0.189315        -0.233846
 C         1.420590         0.134412         0.059138
 C         2.394248         1.353575         0.117405
 C         3.420306         0.334677         0.576321
 O         4.479404         1.024681         1.188054
 C         3.724938        -0.612615        -0.609084
 C         2.265873        -1.043728        -0.437609
 O         1.493013        -2.155790        -0.969658
 C         2.301816        -0.697154         1.038281
 H        -0.479261         0.741107         0.617826
 H        -0.293401         0.562855        -1.281315
 H        -0.533458        -0.816789        -0.207091
 H         2.428973         1.905648        -0.835102
 H         2.046269         2.140632         0.871096
 H         5.355609         0.853221         0.885979
 H         4.028019        -0.018666        -1.477582
 H         4.508993        -1.374738        -0.236439
 H         2.035447        -2.904251        -0.705617
 H         1.974942        -1.453736         1.862305
