19
Iteration:  1318charge 0 multiplicity 1
 C        -0.005835         0.369487        -0.219062
 C         1.436616         0.110361         0.006636
 C         2.281071         1.311201         0.136956
 C         3.439615         0.431157         0.494063
 O         4.462215         1.023552         1.269950
 C         3.713438        -0.594355        -0.739355
 C         2.235457        -1.092341        -0.488131
 O         1.642042        -2.385783        -0.774550
 C         2.394472        -0.691367         0.928781
 H        -0.412674         1.275611         0.252116
 H        -0.079517         0.530021        -1.289489
 H        -0.770233        -0.367124         0.050359
 H         2.138964         2.226484        -0.624457
 H         1.946701         1.864823         1.079567
 H         4.439126         0.658580         2.181072
 H         4.010039        -0.352659        -1.752478
 H         4.497748        -1.298750        -0.477947
 H         1.036768        -2.114409        -1.488284
 H         1.906964        -1.330978         1.822437
