19
Iteration:  1136
 C        -0.187828         0.031844        -0.132993
 C         1.380976         0.284237        -0.060955
 C         2.385282         1.464745         0.004921
 C         3.382483         0.415507         0.532150
 O         4.588016         0.734751         1.320579
 C         3.723335        -0.498741        -0.618898
 C         2.230366        -1.010162        -0.451197
 O         1.752818        -2.331525        -0.856527
 C         2.147545        -0.480190         0.984021
 H        -0.746673         0.670655         0.566167
 H        -0.695308         0.167351        -1.119121
 H        -0.339687        -0.955193         0.205104
 H         2.911030         2.172468        -0.795926
 H         2.175908         2.100996         0.892673
 H         5.272721         1.121619         0.704036
 H         3.954674        -0.140761        -1.643029
 H         4.401952        -1.350773        -0.417520
 H         1.364384        -2.334165        -1.756858
 H         1.815398        -0.964291         1.980542
