19
Iteration:   871charge 0 multiplicity 1
 C        -0.061616         0.192866        -0.034224
 C         1.399351         0.194912         0.026122
 C         2.272171         1.383130         0.103696
 C         3.400882         0.433687         0.475562
 O         4.496522         0.856176         1.371903
 C         3.691138        -0.484933        -0.776431
 C         2.269302        -1.079933        -0.498028
 O         1.689309        -2.232863        -1.009831
 C         2.275256        -0.601702         0.918960
 H        -0.455889         0.826164         0.723085
 H        -0.469514         0.366081        -1.029791
 H        -0.452902        -0.849238         0.163355
 H         2.253666         2.088250        -0.731018
 H         2.023762         1.817992         1.099529
 H         5.113177         0.133391         1.044184
 H         4.024732         0.072441        -1.709708
 H         4.324680        -1.329621        -0.456269
 H         1.907064        -2.892148        -0.303611
 H         2.109643        -1.222559         1.928305
