19
Iteration:  3789
 C        -0.077931         0.284496        -0.201345
 C         1.415197         0.116448        -0.140279
 C         2.342110         1.400014        -0.083259
 C         3.400959         0.437456         0.588017
 O         4.537876         0.799101         1.367126
 C         3.748607        -0.655473        -0.702618
 C         2.277859        -1.058435        -0.532632
 O         1.676458        -2.334578        -0.757159
 C         2.241899        -0.458074         1.004078
 H        -0.528990         1.005033         0.528281
 H        -0.394802         0.395328        -1.247304
 H        -0.493447        -0.787238         0.044856
 H         2.785307         1.804602        -0.935053
 H         1.965875         2.192301         0.658511
 H         4.448627         1.555691         2.062519
 H         4.294646        -0.231285        -1.635382
 H         4.176048        -1.577311        -0.179446
 H         0.734562        -2.216377        -1.007245
 H         1.720106        -0.947926         1.883936
