19
Iteration:  4452
 C        -0.103063         0.144859        -0.204507
 C         1.419616         0.166918        -0.003273
 C         2.366782         1.298868        -0.102138
 C         3.440706         0.394420         0.562735
 O         4.530870         0.920687         1.283310
 C         3.733813        -0.640382        -0.604387
 C         2.306332        -1.068328        -0.338292
 O         1.595699        -2.188241        -0.924814
 C         2.249080        -0.529811         1.030896
 H        -0.763559         0.885797         0.299721
 H        -0.370646         0.197831        -1.260634
 H        -0.515830        -0.788266         0.112409
 H         2.543276         1.720138        -1.083290
 H         2.128661         2.045700         0.649990
 H         4.428066         0.584171         2.192880
 H         4.069182        -0.144433        -1.595845
 H         4.517095        -1.341602        -0.326003
 H         1.338395        -1.849512        -1.809211
 H         1.957031        -0.796380         2.110801
