19
Iteration:  3942charge 0 multiplicity 1
 C        -0.013719         0.165872        -0.272415
 C         1.405917         0.268268        -0.063953
 C         2.313698         1.425450        -0.098015
 C         3.368539         0.420529         0.502969
 O         4.561998         0.641789         1.282194
 C         3.633172        -0.551105        -0.636391
 C         2.274242        -1.051085        -0.348902
 O         1.683672        -2.220356        -0.725341
 C         2.221632        -0.507876         1.004953
 H        -0.572592         0.881412         0.379949
 H        -0.276239         0.526157        -1.281410
 H        -0.293593        -0.912631         0.004668
 H         2.453338         1.714464        -1.182820
 H         1.987952         2.377787         0.439024
 H         4.306146         0.942696         2.152693
 H         4.045997        -0.145957        -1.562280
 H         4.349854        -1.333054        -0.323636
 H         2.180503        -2.686441        -1.394413
 H         1.759591        -0.722428         1.922700
