19
Iteration:  4567
 C        -0.110781         0.345870        -0.339545
 C         1.358089         0.123049         0.026792
 C         2.392687         1.280649         0.080981
 C         3.436362         0.301803         0.527212
 O         4.512925         0.935563         1.137709
 C         3.694373        -0.566016        -0.655133
 C         2.283323        -1.149345        -0.268800
 O         1.712363        -2.201922        -0.868159
 C         2.227978        -0.690581         1.117076
 H        -0.740751         0.578900         0.520649
 H        -0.122827         1.165669        -1.100449
 H        -0.505469        -0.634155        -0.685633
 H         2.479851         1.826001        -0.946258
 H         2.042053         1.957605         0.851467
 H         4.166615         1.342865         1.920322
 H         3.949815        -0.116628        -1.578041
 H         4.517074        -1.250917        -0.461872
 H         1.619101        -2.015167        -1.827738
 H         1.923021        -0.916481         2.252048
