19
Iteration:  3601charge 0 multiplicity 1
 C        -0.163837         0.364206        -0.202210
 C         1.368720         0.195535        -0.012296
 C         2.397113         1.411529         0.015487
 C         3.374212         0.419627         0.549008
 O         4.600209         0.790709         1.193540
 C         3.662239        -0.602454        -0.596492
 C         2.245617        -1.133008        -0.477288
 O         1.846744        -2.450768        -0.832030
 C         2.102373        -0.512287         1.038564
 H        -0.444980         1.167595         0.511919
 H        -0.317128         0.624556        -1.205569
 H        -0.844713        -0.501228        -0.084901
 H         2.652661         1.923740        -0.924425
 H         2.035555         2.209326         0.861192
 H         4.367281         1.460000         1.956865
 H         4.086348        -0.328637        -1.605616
 H         4.393579        -1.307278        -0.188052
 H         1.590923        -2.212748        -1.763301
 H         1.812715        -0.779154         1.997799
