19
Iteration:  3733charge 0 multiplicity 1
 C        -0.062361         0.319125        -0.364151
 C         1.353697         0.140039         0.043646
 C         2.307161         1.356553        -0.047412
 C         3.428906         0.403251         0.504529
 O         4.641814         0.812370         1.215821
 C         3.573106        -0.628102        -0.511225
 C         2.161856        -1.053819        -0.376170
 O         1.710557        -2.286446        -0.868190
 C         2.253811        -0.539219         1.105862
 H        -0.554225         1.238545         0.063761
 H        -0.269537         0.327588        -1.441111
 H        -0.565388        -0.595880        -0.010890
 H         2.571090         1.874613        -0.923289
 H         2.097203         2.115113         0.782883
 H         4.452441         1.342947         2.038507
 H         3.975712        -0.193559        -1.501287
 H         4.366786        -1.424671        -0.322493
 H         2.380002        -2.595668        -1.515836
 H         2.025122        -1.053372         2.125704
