19
Iteration:  2524
 C        -0.088641         0.336406        -0.225562
 C         1.370452         0.191938        -0.022614
 C         2.272090         1.424424         0.069091
 C         3.377742         0.474660         0.539499
 O         4.558967         0.827313         1.251478
 C         3.692013        -0.480607        -0.657292
 C         2.260941        -1.111053        -0.415615
 O         1.723691        -2.407416        -0.815433
 C         2.267488        -0.633843         0.915762
 H        -0.509270         1.154148         0.358215
 H        -0.345451         0.396600        -1.277533
 H        -0.549250        -0.602677         0.208914
 H         2.351248         2.074149        -0.895820
 H         2.019141         2.124336         0.961543
 H         4.434317         0.204276         1.977336
 H         4.039007        -0.087687        -1.571620
 H         4.421375        -1.262093        -0.325231
 H         2.128323        -2.499901        -1.675075
 H         1.976825        -1.214541         1.940746
