19
Iteration:  4520
 C        -0.170413         0.284470        -0.127859
 C         1.341272         0.227958        -0.071402
 C         2.366274         1.358805        -0.036352
 C         3.381542         0.395723         0.527592
 O         4.566389         0.776286         1.305312
 C         3.680542        -0.545198        -0.565090
 C         2.290779        -1.043145        -0.501031
 O         1.807822        -2.352682        -0.804988
 C         2.185560        -0.588241         0.931353
 H        -0.610649         1.039752         0.516700
 H        -0.446373         0.572041        -1.130480
 H        -0.690830        -0.692119         0.214765
 H         2.728029         1.951789        -0.942147
 H         2.062809         1.995153         0.744235
 H         4.435961         1.609705         1.707883
 H         4.104447        -0.026678        -1.496824
 H         4.477998        -1.337137        -0.387012
 H         1.440837        -2.384878        -1.716176
 H         1.922720        -1.170581         1.719037
