19
Iteration:   823charge 0 multiplicity 1
 C        -0.095984         0.064537        -0.199805
 C         1.383041         0.134490         0.131860
 C         2.199527         1.348964         0.080721
 C         3.481101         0.394579         0.550872
 O         4.574707         0.821289         1.395575
 C         3.656399        -0.455429        -0.834672
 C         2.262780        -0.986493        -0.479368
 O         1.575898        -2.114659        -0.948035
 C         2.362426        -0.589902         1.031028
 H        -0.875894         0.377314         0.545450
 H        -0.234222         0.560616        -1.161880
 H        -0.308193        -0.933662        -0.523208
 H         2.510237         1.648677        -0.952512
 H         1.890526         2.065920         0.771387
 H         5.429091         0.550636         1.045192
 H         3.779300         0.073101        -1.789459
 H         4.393652        -1.250506        -0.620793
 H         2.144870        -2.816514        -0.625944
 H         2.174718        -1.070656         1.908866
