19
Iteration:  3785charge 0 multiplicity 1
 C        -0.049530         0.277040        -0.197643
 C         1.446608         0.144654        -0.145489
 C         2.339160         1.407576        -0.061474
 C         3.395273         0.382479         0.600322
 O         4.518195         0.802840         1.348208
 C         3.713222        -0.604394        -0.681306
 C         2.262616        -1.060244        -0.510746
 O         1.685503        -2.354575        -0.737906
 C         2.245270        -0.483948         0.964590
 H        -0.417816         1.184514         0.435921
 H        -0.343353         0.392719        -1.298488
 H        -0.553658        -0.644167        -0.038557
 H         2.673894         1.899377        -1.045888
 H         1.920759         2.120951         0.610112
 H         4.464176         1.467482         2.014509
 H         4.222731        -0.241511        -1.565784
 H         4.229891        -1.510663        -0.262681
 H         0.777556        -2.238507        -1.063789
 H         1.855880        -0.940369         1.950542
