19
Iteration:  2492charge 0 multiplicity 1
 C        -0.072705         0.269972        -0.145665
 C         1.390917         0.137074        -0.044229
 C         2.351916         1.281207        -0.021061
 C         3.434291         0.348658         0.535003
 O         4.460385         1.014071         1.287321
 C         3.741622        -0.665209        -0.711530
 C         2.276199        -1.066955        -0.341505
 O         1.712560        -2.225856        -0.882507
 C         2.205269        -0.572500         1.011774
 H        -0.456873         0.755977         0.767753
 H        -0.384917         0.835478        -1.091782
 H        -0.552591        -0.759797        -0.217884
 H         2.487227         1.770501        -1.068693
 H         2.216259         2.006487         0.837542
 H         4.390826         0.565555         2.219147
 H         3.926523        -0.197669        -1.678411
 H         4.302989        -1.624135        -0.606155
 H         1.711891        -1.992469        -1.847064
 H         1.976095        -1.323020         1.935240
