19
Iteration:  2394charge 0 multiplicity 1
 C        -0.043841         0.318366        -0.225242
 C         1.429995         0.123990         0.020623
 C         2.282319         1.394573        -0.010557
 C         3.396413         0.373967         0.521185
 O         4.468773         0.780175         1.335806
 C         3.654824        -0.506828        -0.703511
 C         2.255934        -1.069406        -0.398223
 O         1.777214        -2.328103        -0.760775
 C         2.215431        -0.633073         1.005401
 H        -0.449980         1.217500         0.123901
 H        -0.097426         0.584983        -1.307063
 H        -0.655041        -0.579544        -0.070958
 H         2.548982         1.720418        -1.010259
 H         2.131577         2.168420         0.633015
 H         4.930495         1.631518         0.977448
 H         3.843259        -0.007992        -1.690896
 H         4.424960        -1.291351        -0.478453
 H         1.439791        -2.143530        -1.667589
 H         1.967145        -1.137319         1.909811
