19
Iteration:  1130
 C        -0.217121        -0.031360        -0.106942
 C         1.351859         0.270497        -0.112935
 C         2.421820         1.488880         0.006852
 C         3.418047         0.436311         0.523444
 O         4.603518         0.757433         1.373975
 C         3.718042        -0.555637        -0.637544
 C         2.213506        -0.996435        -0.451770
 O         1.717927        -2.282779        -0.854316
 C         2.162094        -0.474960         0.949054
 H        -0.637975         0.591574         0.705496
 H        -0.674548         0.106296        -1.069301
 H        -0.489820        -1.096112         0.259158
 H         2.709463         2.016241        -0.889039
 H         2.238677         2.219357         0.850466
 H         5.301310         1.012147         0.814996
 H         4.103272        -0.241335        -1.626368
 H         4.465234        -1.324941        -0.378278
 H         1.502946        -2.230646        -1.832116
 H         1.831061        -0.865013         1.933769
