19
Iteration:  1527charge 0 multiplicity 1
 C        -0.009560         0.067281        -0.312274
 C         1.458905         0.194502         0.050718
 C         2.369657         1.414360         0.019348
 C         3.419916         0.371141         0.563332
 O         4.522245         0.765337         1.267107
 C         3.646518        -0.627527        -0.700746
 C         2.260121        -1.026039        -0.328538
 O         1.622385        -2.118974        -0.970926
 C         2.243962        -0.517842         1.085758
 H        -0.682556         0.767655         0.348818
 H        -0.078944         0.378628        -1.421761
 H        -0.408757        -1.032439        -0.236390
 H         2.583314         1.903123        -0.922061
 H         2.148171         2.167091         0.778974
 H         4.488681         1.535344         1.895342
 H         3.719715        -0.163930        -1.743211
 H         4.431490        -1.412032        -0.635083
 H         1.087584        -2.667710        -0.334442
 H         2.039264        -0.898657         2.114109
