19
Iteration:  3166charge 0 multiplicity 1
 C        -0.089476         0.368063        -0.257297
 C         1.423180         0.255865        -0.064894
 C         2.336689         1.418189        -0.015288
 C         3.392609         0.411908         0.513620
 O         4.534580         0.708353         1.243710
 C         3.658040        -0.610842        -0.697061
 C         2.183589        -1.118078        -0.364464
 O         1.800641        -2.344310        -0.718505
 C         2.183850        -0.546745         0.983857
 H        -0.544725         1.092741         0.432767
 H        -0.453008         0.558260        -1.336645
 H        -0.542998        -0.644533         0.099542
 H         2.557419         1.893222        -1.013313
 H         1.913304         2.246262         0.707870
 H         4.331381         1.124753         2.175361
 H         3.773901        -0.022352        -1.629296
 H         4.540742        -1.208397        -0.396669
 H         2.378953        -2.623294        -1.438886
 H         1.934876        -0.962657         1.934241
