19
Iteration:  2148charge 0 multiplicity 1
 C        -0.119990         0.119769        -0.251929
 C         1.431579         0.197270        -0.096022
 C         2.449594         1.387135        -0.031439
 C         3.420962         0.300622         0.510029
 O         4.460198         0.949269         1.366230
 C         3.807654        -0.746357        -0.576932
 C         2.320936        -1.157810        -0.374623
 O         1.507461        -2.023122        -0.950258
 C         2.260211        -0.607616         1.020871
 H        -0.536165         1.112360         0.180341
 H        -0.350852        -0.004445        -1.263983
 H        -0.589962        -0.673352         0.295832
 H         2.694396         1.851494        -1.054549
 H         2.303124         2.098591         0.727558
 H         4.469056         1.898313         1.507033
 H         4.113979        -0.351667        -1.595494
 H         4.562245        -1.396062        -0.080640
 H         1.450098        -2.962167        -0.586028
 H         1.859254        -0.874891         1.929518
