19
Iteration:   321
 C        -0.147152         0.037706        -0.157348
 C         1.361288         0.256962         0.002903
 C         2.402680         1.442304         0.010113
 C         3.407349         0.386726         0.544215
 O         4.593298         0.756635         1.241647
 C         3.628957        -0.591225        -0.654915
 C         2.286883        -1.044066        -0.362204
 O         1.653265        -2.082282        -0.979513
 C         2.199580        -0.608638         1.105704
 H        -0.720687         0.642258         0.518093
 H        -0.487481        -0.076566        -1.136992
 H        -0.373104        -0.914776         0.329973
 H         2.601015         2.090213        -0.850862
 H         2.026683         2.062942         0.762286
 H         5.131060         1.337425         0.667291
 H         3.819079        -0.125930        -1.542884
 H         4.340919        -1.359039        -0.395554
 H         2.347452        -2.606080        -1.364650
 H         2.003242        -0.964065         2.076857
