19
Iteration:  2210
 C        -0.118764         0.287403        -0.334018
 C         1.358253         0.190719        -0.118066
 C         2.340090         1.360075        -0.051853
 C         3.391967         0.423423         0.499894
 O         4.493903         0.680515         1.370331
 C         3.687135        -0.623748        -0.653487
 C         2.322764        -1.072500        -0.317994
 O         1.744842        -2.230470        -0.789516
 C         2.164488        -0.459383         1.090524
 H        -0.590413         1.021219         0.348949
 H        -0.402363         0.801092        -1.297730
 H        -0.533075        -0.689389        -0.335507
 H         2.418744         1.942673        -0.967021
 H         2.033220         2.026832         0.842836
 H         5.065434         1.038443         0.670715
 H         3.905273        -0.078448        -1.572893
 H         4.503682        -1.211152        -0.329291
 H         2.392798        -2.970864        -0.934867
 H         1.943341        -0.929149         2.030120
