19
Iteration:  4956charge 0 multiplicity 1
 C        -0.137415         0.445421        -0.196625
 C         1.345937         0.120207        -0.057148
 C         2.303944         1.299659         0.109616
 C         3.413021         0.417618         0.549505
 O         4.468165         0.963809         1.349279
 C         3.636881        -0.564658        -0.584032
 C         2.297568        -1.097765        -0.503920
 O         1.850072        -2.425193        -0.939578
 C         2.231842        -0.657725         1.005013
 H        -0.387844         1.003967         0.683342
 H        -0.400776         1.012681        -1.064646
 H        -0.670504        -0.552530        -0.162066
 H         2.381089         1.894600        -0.841659
 H         2.243813         2.029389         0.950538
 H         5.276711         1.081332         0.888373
 H         4.039766        -0.394614        -1.642309
 H         4.375059        -1.382891        -0.207790
 H         1.316050        -2.305370        -1.764390
 H         1.946786        -1.134470         1.860563
