19
Iteration:  1786charge 0 multiplicity 1
 C        -0.083286         0.314115        -0.097433
 C         1.389404         0.205974        -0.084341
 C         2.420546         1.353450        -0.127456
 C         3.465373         0.356648         0.441635
 O         4.400735         0.759377         1.484484
 C         3.783439        -0.554491        -0.708184
 C         2.237331        -1.091945        -0.467840
 O         1.618188        -2.328558        -0.745508
 C         2.287902        -0.511720         0.906709
 H        -0.391497         0.872019         0.856783
 H        -0.390862         1.015899        -0.872566
 H        -0.646344        -0.689918        -0.091658
 H         2.686523         1.736687        -1.112792
 H         2.226830         2.230159         0.478953
 H         3.938976         1.437331         1.970599
 H         4.022812        -0.086704        -1.665101
 H         4.457914        -1.357553        -0.741511
 H         1.831942        -2.405875        -1.706272
 H         2.262110        -1.090960         1.830119
