19
Iteration:  4664charge 0 multiplicity 1
 C        -0.163979         0.390448        -0.059096
 C         1.335071         0.156949         0.009489
 C         2.340248         1.354338        -0.079268
 C         3.395077         0.375720         0.574071
 O         4.501432         0.866704         1.296111
 C         3.701135        -0.582618        -0.653790
 C         2.308883        -1.102143        -0.462968
 O         1.827439        -2.315383        -0.908410
 C         2.190244        -0.624057         0.953065
 H        -0.369350         1.371813         0.329214
 H        -0.361495         0.346618        -1.145263
 H        -0.735979        -0.379169         0.505145
 H         2.755954         1.741252        -1.031807
 H         1.946141         2.103703         0.572969
 H         4.166056         0.880717         2.150622
 H         4.164966        -0.094271        -1.647977
 H         4.435134        -1.377642        -0.231927
 H         1.698151        -2.318957        -1.883528
 H         2.074209        -1.293731         1.919180
