19
Iteration:   122
 C        -0.082510         0.170031        -0.024585
 C         1.402474         0.162420         0.023312
 C         2.307339         1.378699         0.112086
 C         3.419494         0.405022         0.537583
 O         4.539647         0.917706         1.201025
 C         3.702142        -0.538565        -0.715704
 C         2.252623        -1.043327        -0.518191
 O         1.594990        -2.201855        -0.956695
 C         2.280820        -0.643379         0.967792
 H        -0.497744         1.015050         0.554365
 H        -0.463506         0.141451        -1.033733
 H        -0.488616        -0.767216         0.444645
 H         2.557208         1.892962        -0.796658
 H         1.967491         1.992454         0.916697
 H         4.995658         0.288798         1.805529
 H         4.142463        -0.181717        -1.655211
 H         4.433568        -1.248412        -0.311861
 H         2.248518        -2.878605        -1.299203
 H         1.868204        -0.959735         1.986804
