19
Iteration:   533
 C        -0.040283         0.150116        -0.123201
 C         1.429690         0.150448         0.063470
 C         2.426466         1.375639        -0.009172
 C         3.413100         0.417848         0.554522
 O         4.541272         0.872122         1.257150
 C         3.578629        -0.439539        -0.766297
 C         2.225146        -1.093111        -0.346966
 O         1.637351        -2.258346        -1.046833
 C         2.241739        -0.564403         1.067893
 H        -0.543305         1.013844         0.338908
 H        -0.261705         0.196850        -1.243353
 H        -0.467119        -0.786459         0.386305
 H         2.641308         1.838084        -1.008267
 H         2.004797         2.189014         0.728437
 H         4.678246         0.342957         2.089656
 H         3.780209         0.150061        -1.698978
 H         4.306936        -1.338183        -0.516814
 H         2.114072        -3.024961        -0.738571
 H         1.905681        -0.930168         2.123356
