19
Iteration:  2429charge 0 multiplicity 1
 C        -0.154858         0.121896        -0.163561
 C         1.354989         0.218108        -0.123835
 C         2.334402         1.437431        -0.043999
 C         3.459066         0.431878         0.510744
 O         4.486828         0.865499         1.366106
 C         3.686885        -0.708491        -0.598270
 C         2.325279        -1.087275        -0.338668
 O         1.763834        -2.213699        -0.908052
 C         2.216190        -0.539705         1.023064
 H        -0.535274         0.472166         0.786884
 H        -0.331949         0.740887        -1.136532
 H        -0.686782        -0.778687        -0.325592
 H         2.670943         1.978008        -0.934630
 H         2.237765         2.148483         0.718109
 H         5.293569         0.802574         0.719745
 H         4.107049        -0.443077        -1.653172
 H         4.215415        -1.593841        -0.259885
 H         0.937999        -2.029206        -1.382657
 H         1.732873        -0.782307         2.078583
