19
Iteration:  3404charge 0 multiplicity 1
 C        -0.045493         0.096085        -0.232228
 C         1.416692         0.188448        -0.044671
 C         2.377111         1.402655        -0.098113
 C         3.401538         0.362779         0.556543
 O         4.540609         0.828425         1.196962
 C         3.704680        -0.675985        -0.547203
 C         2.291105        -1.121306        -0.383422
 O         1.657983        -2.115010        -0.907724
 C         2.205613        -0.537634         1.090473
 H        -0.633998         0.793697         0.464993
 H        -0.311775         0.605418        -1.152486
 H        -0.410363        -0.976070        -0.099101
 H         2.736969         2.077622        -0.951506
 H         2.081958         2.081481         0.646607
 H         4.321687         1.351653         1.991551
 H         4.250180        -0.262317        -1.398219
 H         4.290304        -1.497886        -0.113059
 H         0.744622        -1.934926        -1.108718
 H         1.857905        -0.809427         2.106013
