19
Iteration:  1993
 C         0.020023         0.284939        -0.294657
 C         1.444218         0.122484         0.092312
 C         2.370240         1.304765        -0.063243
 C         3.324625         0.394771         0.546014
 O         4.512453         0.895838         1.194106
 C         3.727717        -0.701917        -0.476855
 C         2.273023        -1.123306        -0.362335
 O         1.655313        -2.202734        -1.064478
 C         2.208767        -0.558207         1.134365
 H        -0.570674         0.932738         0.412142
 H        -0.121372         0.716265        -1.240811
 H        -0.595177        -0.582031        -0.168365
 H         2.611795         1.774837        -1.099814
 H         2.174478         2.171264         0.582829
 H         4.358666         1.533783         1.953547
 H         4.192450        -0.491351        -1.525976
 H         4.428601        -1.390579        -0.006171
 H         0.730294        -2.028114        -0.911001
 H         2.000767        -0.986317         2.132233
