19
Iteration:  2930
 C        -0.094163         0.164145        -0.174360
 C         1.406069         0.194324         0.002667
 C         2.410445         1.354692        -0.072665
 C         3.456258         0.375655         0.563105
 O         4.537769         0.970502         1.197564
 C         3.728872        -0.728176        -0.530733
 C         2.210279        -1.087280        -0.342756
 O         1.666184        -2.234130        -1.029785
 C         2.192151        -0.568710         1.092765
 H        -0.536335         0.933800         0.452404
 H        -0.375332         0.248881        -1.209758
 H        -0.616970        -0.712324         0.210039
 H         2.619171         1.799643        -1.027535
 H         2.259735         2.203273         0.741036
 H         4.444156         1.357772         2.063189
 H         4.053378        -0.197270        -1.427494
 H         4.349900        -1.537471        -0.167004
 H         1.245915        -1.675075        -1.738094
 H         1.891314        -1.232558         2.074011
