19
Iteration:  4808charge 0 multiplicity 1
 C        -0.138962         0.416808        -0.071817
 C         1.415221         0.134652        -0.035581
 C         2.354945         1.277089        -0.007366
 C         3.385097         0.293653         0.559486
 O         4.407182         0.913711         1.334893
 C         3.650040        -0.588736        -0.648686
 C         2.299666        -1.112497        -0.470744
 O         1.863324        -2.272574        -0.908792
 C         2.258753        -0.702245         0.961937
 H        -0.377787         0.913485         0.879860
 H        -0.180463         1.139650        -0.905181
 H        -0.775330        -0.329856        -0.395270
 H         2.580052         1.790683        -1.009781
 H         2.025209         1.907984         0.825184
 H         4.123489         1.871288         1.473301
 H         3.961692         0.030183        -1.524251
 H         4.340330        -1.384486        -0.482307
 H         1.686677        -2.293191        -1.858486
 H         1.909306        -1.113068         1.855781
