19
Iteration:  3659
 C        -0.095932         0.258682        -0.140017
 C         1.396270         0.276208        -0.012922
 C         2.428806         1.362994        -0.191486
 C         3.454416         0.352846         0.465315
 O         4.446406         0.845738         1.383240
 C         3.749342        -0.653423        -0.619751
 C         2.266138        -1.053530        -0.384182
 O         1.679927        -2.306420        -0.925603
 C         2.306559        -0.584415         1.002659
 H        -0.693344         0.675038         0.661320
 H        -0.394290         0.896488        -1.007903
 H        -0.443481        -0.863761        -0.224764
 H         2.347232         1.790319        -1.272908
 H         2.158272         2.193179         0.548245
 H         4.053532         1.475781         1.922454
 H         3.998276        -0.181230        -1.569320
 H         4.380897        -1.499673        -0.266419
 H         0.828685        -2.238927        -0.487555
 H         1.999374        -0.965793         2.052401
