19
Iteration:  3187
 C        -0.185517         0.355864        -0.324739
 C         1.366805         0.080112        -0.001961
 C         2.357514         1.305013        -0.053218
 C         3.445467         0.356876         0.524749
 O         4.568412         0.799752         1.250709
 C         3.691198        -0.557991        -0.667562
 C         2.270591        -1.066484        -0.367775
 O         1.713201        -2.271994        -0.751601
 C         2.244570        -0.510474         1.074722
 H        -0.503914         0.997228         0.513095
 H        -0.060271         0.966207        -1.256769
 H        -0.972879        -0.476205        -0.506802
 H         2.359586         1.831172        -0.958160
 H         2.121320         2.015954         0.850490
 H         4.328941         1.426373         1.939469
 H         3.924497        -0.182435        -1.698635
 H         4.183299        -1.452178        -0.258256
 H         2.047340        -2.565584        -1.636150
 H         2.095667        -1.137975         1.939226
