19
Iteration:  4958charge 0 multiplicity 1
 C        -0.143675         0.449247        -0.185444
 C         1.366847         0.108866        -0.051064
 C         2.285402         1.296347         0.100431
 C         3.412168         0.412717         0.539622
 O         4.472605         0.968746         1.352241
 C         3.656028        -0.569742        -0.600303
 C         2.295588        -1.100670        -0.499119
 O         1.863431        -2.411637        -0.935611
 C         2.210847        -0.656874         0.990765
 H        -0.412339         1.023499         0.717756
 H        -0.433276         1.056036        -1.054003
 H        -0.683776        -0.475608        -0.160292
 H         2.380934         1.850132        -0.795527
 H         2.192900         2.022386         0.942234
 H         5.280646         1.014194         0.909969
 H         4.088581        -0.405604        -1.665689
 H         4.357773        -1.402832        -0.163277
 H         1.309129        -2.310011        -1.731484
 H         1.859216        -1.141156         1.918218
