19
Iteration:  4679charge 0 multiplicity 1
 C        -0.199311         0.418773        -0.158169
 C         1.359686         0.129559        -0.057484
 C         2.311264         1.247466         0.062957
 C         3.425006         0.360044         0.462096
 O         4.455623         0.921446         1.228744
 C         3.819518        -0.641907        -0.593041
 C         2.300739        -1.042953        -0.412982
 O         1.826815        -2.265928        -0.888853
 C         2.208014        -0.677793         0.993935
 H        -0.313611         1.431278         0.372934
 H        -0.809957         0.549224        -1.096686
 H        -0.650873        -0.211281         0.555300
 H         2.202958         1.846884        -0.857243
 H         2.300448         1.933771         0.906779
 H         4.299071         0.902168         2.204474
 H         4.039421        -0.291046        -1.587933
 H         4.490498        -1.367129        -0.300433
 H         1.619124        -2.075892        -1.824711
 H         1.924834        -1.300940         1.734671
