19
Iteration:  2173
 C         0.030155         0.094464        -0.303546
 C         1.430333         0.217835        -0.048617
 C         2.395266         1.351273        -0.082965
 C         3.410927         0.317910         0.531513
 O         4.534182         0.813895         1.382554
 C         3.644910        -0.620731        -0.602897
 C         2.162087        -1.040973        -0.376614
 O         1.541055        -2.130747        -0.932773
 C         2.234083        -0.453195         1.121563
 H        -0.568716         0.810556         0.053252
 H         0.096493        -0.051084        -1.375637
 H        -0.356918        -0.872844         0.109979
 H         2.763924         1.805434        -1.086205
 H         2.045828         2.171692         0.579486
 H         4.870464         1.765205         1.361534
 H         4.009531        -0.269468        -1.562767
 H         4.357611        -1.416650        -0.170639
 H         2.175211        -2.884302        -0.934917
 H         2.010275        -0.954630         2.090312
