19
Iteration:  4962
 C        -0.143179         0.454606        -0.156956
 C         1.395325         0.096850        -0.035626
 C         2.257322         1.298215         0.083868
 C         3.414245         0.397882         0.525340
 O         4.465000         0.973251         1.358953
 C         3.719947        -0.597267        -0.640028
 C         2.276318        -1.111515        -0.477177
 O         1.890567        -2.376746        -0.925059
 C         2.169136        -0.657489         0.967546
 H        -0.452426         1.039246         0.752391
 H        -0.441200         1.103117        -1.031509
 H        -0.808565        -0.422815        -0.171780
 H         2.443267         1.886417        -0.852163
 H         1.992284         1.962816         0.912259
 H         5.381621         0.872481         0.854455
 H         4.132768        -0.347941        -1.592948
 H         4.259995        -1.353982        -0.141644
 H         1.292429        -2.300525        -1.687383
 H         1.759140        -1.134743         1.934937
