19
Iteration:  3155charge 0 multiplicity 1
 C        -0.055026         0.283587        -0.179259
 C         1.399323         0.262802        -0.096042
 C         2.456897         1.500818        -0.045682
 C         3.325716         0.399448         0.548408
 O         4.500346         0.683582         1.231655
 C         3.572648        -0.507343        -0.649308
 C         2.296334        -1.097048        -0.408896
 O         1.780237        -2.417636        -0.732324
 C         2.165565        -0.510211         0.955451
 H        -0.413737         1.199143         0.324859
 H        -0.354199         0.334147        -1.277795
 H        -0.555413        -0.664892         0.253196
 H         2.643451         2.019928        -1.019602
 H         2.133028         2.242490         0.810415
 H         4.330471         0.985464         2.133699
 H         3.851065        -0.216256        -1.680126
 H         4.275482        -1.285718        -0.308121
 H         2.244668        -2.711673        -1.517289
 H         1.732719        -0.722899         1.914256
