19
Iteration:  1640
 C        -0.060508         0.286100        -0.184318
 C         1.371494         0.138709        -0.055434
 C         2.376402         1.387820        -0.090151
 C         3.383996         0.387886         0.531708
 O         4.492526         0.686799         1.333996
 C         3.685701        -0.593522        -0.684844
 C         2.257178        -1.033943        -0.450833
 O         1.817243        -2.214283        -0.820887
 C         2.187705        -0.569049         1.045360
 H        -0.506562         0.953680         0.684779
 H        -0.324984         0.574608        -1.247604
 H        -0.645572        -0.629563        -0.033033
 H         2.719989         1.922686        -1.012871
 H         2.131902         2.156717         0.554210
 H         4.287245         1.616712         1.724905
 H         4.136420        -0.123213        -1.595810
 H         4.363892        -1.392953        -0.298634
 H         0.896916        -2.152899        -1.099210
 H         1.882270        -1.115901         1.895166
