19
Iteration:   580
 C        -0.097556         0.094482         0.005953
 C         1.391135         0.139585         0.002918
 C         2.325629         1.486893        -0.007153
 C         3.407768         0.492999         0.427072
 O         4.500671         0.799053         1.358625
 C         3.763208        -0.615093        -0.668354
 C         2.272588        -0.968504        -0.590693
 O         1.598734        -2.284495        -0.930165
 C         2.285377        -0.451511         0.927395
 H        -0.529052         0.718057         0.843843
 H        -0.459234         0.612838        -0.943089
 H        -0.501375        -0.978850         0.167303
 H         2.387777         2.024967        -0.966747
 H         2.045590         2.221229         0.876353
 H         4.582061        -0.072261         1.829163
 H         4.152328        -0.306814        -1.652984
 H         4.482832        -1.347784        -0.095829
 H         2.361177        -2.905914        -0.750057
 H         2.016707        -0.906481         1.778582
