19
Iteration:  2978charge 0 multiplicity 1
 C        -0.042820         0.249132        -0.107066
 C         1.456337         0.263773        -0.075718
 C         2.393690         1.472550        -0.122770
 C         3.429918         0.408212         0.482799
 O         4.425794         0.771098         1.374748
 C         3.694093        -0.543936        -0.725312
 C         2.333041        -1.126906        -0.450720
 O         1.660316        -2.377763        -0.755336
 C         2.223452        -0.536339         0.961911
 H        -0.452714         0.890509         0.694980
 H        -0.369771         0.447007        -1.117687
 H        -0.527920        -0.688740         0.149904
 H         2.674725         1.931677        -1.098902
 H         1.889582         2.208652         0.523847
 H         4.098009         0.635549         2.306031
 H         3.701202        -0.065656        -1.670157
 H         4.550695        -1.096799        -0.326861
 H         1.422102        -2.384890        -1.688343
 H         2.100872        -0.985082         1.879610
