19
Iteration:  2065
 C        -0.043582         0.306079        -0.261037
 C         1.442761         0.194475        -0.092136
 C         2.332742         1.436720        -0.076275
 C         3.404243         0.473726         0.523891
 O         4.535172         0.600218         1.298868
 C         3.646814        -0.545449        -0.627737
 C         2.194440        -1.077014        -0.405188
 O         1.763952        -2.311040        -0.734519
 C         2.164514        -0.481752         0.991193
 H        -0.719859         0.707592         0.565941
 H        -0.421714         1.055042        -1.072233
 H        -0.515590        -0.754670        -0.543103
 H         2.520262         1.981681        -1.016853
 H         1.811072         2.158951         0.654448
 H         4.513352         1.238639         2.100699
 H         4.043075        -0.294997        -1.586910
 H         4.299314        -1.386374        -0.246961
 H         2.373450        -2.774483        -1.297830
 H         1.922528        -0.819347         1.901721
