19
Iteration:  3596charge 0 multiplicity 1
 C        -0.175491         0.322464        -0.225706
 C         1.388347         0.221268        -0.008030
 C         2.372000         1.401161         0.001204
 C         3.409379         0.380216         0.585842
 O         4.563311         0.786621         1.176850
 C         3.651927        -0.608275        -0.593637
 C         2.259827        -1.112813        -0.428029
 O         1.826947        -2.405993        -0.831943
 C         2.136138        -0.476282         1.027689
 H        -0.397837         1.178149         0.404438
 H        -0.443778         0.679923        -1.288280
 H        -0.831622        -0.545206        -0.021282
 H         2.742959         2.050625        -0.816727
 H         2.136163         2.000065         0.792643
 H         4.365045         1.447883         1.807043
 H         4.024819        -0.328978        -1.576940
 H         4.388526        -1.367666        -0.256707
 H         1.689150        -2.279947        -1.786890
 H         1.895157        -1.040876         2.031183
