19
Iteration:  2661
 C        -0.175889         0.305059        -0.139930
 C         1.319789         0.178288        -0.115003
 C         2.372581         1.404797        -0.033356
 C         3.396342         0.377371         0.544641
 O         4.516318         0.755749         1.275299
 C         3.694149        -0.579819        -0.626270
 C         2.295857        -1.118510        -0.400091
 O         1.791054        -2.310685        -0.824248
 C         2.254035        -0.516973         0.995227
 H        -0.572525         0.757148         0.762503
 H        -0.493594         0.846764        -1.099730
 H        -0.664785        -0.677414        -0.217542
 H         2.703864         1.880895        -1.071216
 H         1.985743         2.171220         0.665231
 H         4.089121         1.518082         1.832272
 H         4.019710        -0.269092        -1.655403
 H         4.484776        -1.264252        -0.234186
 H         1.887081        -2.177014        -1.807693
 H         2.077632        -1.091402         2.027507
