19
Iteration:  3922charge 0 multiplicity 1
 C        -0.136656         0.183374        -0.321009
 C         1.375485         0.157126        -0.067966
 C         2.432665         1.400640        -0.133762
 C         3.444391         0.415978         0.524199
 O         4.509576         0.658282         1.350056
 C         3.710347        -0.476754        -0.754703
 C         2.249997        -1.112752        -0.315306
 O         1.630170        -2.279896        -0.701094
 C         2.230673        -0.424615         1.048051
 H        -0.365541         1.068492         0.252511
 H        -0.387383         0.518170        -1.336923
 H        -0.790761        -0.708426         0.034118
 H         2.829307         2.053135        -0.809715
 H         1.967086         2.028930         0.679570
 H         4.341827         1.280585         2.157025
 H         3.794988         0.040658        -1.772897
 H         4.691540        -0.959116        -0.729589
 H         2.085908        -2.665823        -1.472538
 H         2.222992        -1.008875         1.986600
