19
Iteration:  2141
 C        -0.102828         0.208931        -0.186120
 C         1.470091         0.155983        -0.095486
 C         2.377207         1.348904        -0.071378
 C         3.447166         0.333387         0.533161
 O         4.461633         0.948066         1.353077
 C         3.849863        -0.714776        -0.567074
 C         2.281803        -1.160876        -0.355143
 O         1.505682        -2.064183        -0.993797
 C         2.249138        -0.610636         0.975574
 H        -0.568598         1.090481         0.040174
 H        -0.438380         0.092542        -1.262012
 H        -0.602059        -0.711150         0.257884
 H         2.921819         1.758889        -0.963937
 H         2.213072         2.016310         0.819522
 H         4.211013         1.828300         1.501896
 H         4.246076        -0.387490        -1.500059
 H         4.552672        -1.362455         0.052279
 H         1.418017        -2.828089        -0.378230
 H         2.009220        -0.937418         1.991847
