19
Iteration:  2397charge 0 multiplicity 1
 C        -0.042457         0.298894        -0.222131
 C         1.419738         0.140149         0.031195
 C         2.286259         1.370131        -0.038420
 C         3.408802         0.401431         0.526932
 O         4.476540         0.781048         1.336213
 C         3.647950        -0.498097        -0.684386
 C         2.262515        -1.074753        -0.411669
 O         1.774846        -2.343314        -0.775917
 C         2.199241        -0.615766         1.009007
 H        -0.444563         1.247174         0.213078
 H        -0.100323         0.622311        -1.359330
 H        -0.599019        -0.594873        -0.080674
 H         2.609326         1.769827        -1.010046
 H         2.206377         2.164309         0.751868
 H         4.877690         1.532720         0.916308
 H         3.883018         0.037469        -1.682256
 H         4.342193        -1.277297        -0.447000
 H         1.368900        -2.168807        -1.662911
 H         1.962034        -1.185224         2.003675
