19
Iteration:  3882charge 0 multiplicity 1
 C        -0.032270         0.278524        -0.262023
 C         1.394271         0.165467        -0.006943
 C         2.404028         1.381260         0.046046
 C         3.363771         0.343800         0.499736
 O         4.521639         0.860209         1.206598
 C         3.720634        -0.656826        -0.573750
 C         2.265291        -1.033267        -0.416758
 O         1.722785        -2.311297        -0.787917
 C         2.143082        -0.546625         0.987253
 H        -0.347167         1.190481         0.273448
 H        -0.222096         0.364591        -1.342953
 H        -0.668242        -0.537152         0.033227
 H         2.612336         1.905193        -0.971206
 H         2.150729         2.057611         0.872933
 H         4.168173         1.605722         1.634915
 H         4.207060        -0.207967        -1.468981
 H         4.241003        -1.516243        -0.161029
 H         1.205244        -2.091758        -1.580151
 H         1.954430        -1.319293         1.849311
