19
Iteration:  2174
 C         0.027938         0.095817        -0.306314
 C         1.422004         0.221621        -0.048861
 C         2.398433         1.348989        -0.084932
 C         3.401498         0.320064         0.530529
 O         4.540822         0.809437         1.383947
 C         3.635597        -0.617471        -0.602062
 C         2.164287        -1.041553        -0.379940
 O         1.547433        -2.135620        -0.929996
 C         2.241097        -0.451316         1.124185
 H        -0.561953         0.813239         0.066349
 H         0.119025        -0.033932        -1.404777
 H        -0.355727        -0.869689         0.111762
 H         2.730979         1.808571        -1.085006
 H         2.043017         2.214346         0.571142
 H         4.876300         1.726257         1.358944
 H         4.010050        -0.266181        -1.548265
 H         4.354590        -1.393293        -0.175125
 H         2.187491        -2.900805        -0.958141
 H         1.994777        -0.960508         2.130807
