19
Iteration:   178
 C        -0.124485         0.060803        -0.097035
 C         1.358580         0.199440         0.127434
 C         2.326824         1.416711        -0.019857
 C         3.484427         0.377831         0.490128
 O         4.579987         0.763706         1.278912
 C         3.683288        -0.515482        -0.732627
 C         2.212764        -0.978449        -0.441720
 O         1.714135        -2.186672        -0.930788
 C         2.268824        -0.621629         1.028329
 H        -0.713030         0.726967         0.583303
 H        -0.358543         0.350897        -1.105691
 H        -0.477319        -0.971172         0.099301
 H         2.487733         1.911644        -0.973940
 H         2.180395         2.149224         0.706123
 H         4.605296         1.651126         1.603377
 H         3.871966         0.069943        -1.628685
 H         4.432221        -1.300040        -0.503089
 H         0.853640        -2.144174        -1.337715
 H         2.209183        -1.521728         1.850214
