19
Iteration:  2637
 C        -0.051211         0.233316        -0.102276
 C         1.380772         0.176069         0.003938
 C         2.383930         1.351580        -0.081494
 C         3.485725         0.401302         0.508944
 O         4.488751         0.913231         1.384015
 C         3.687418        -0.682179        -0.594048
 C         2.225792        -1.066902        -0.484323
 O         1.728554        -2.285725        -0.948278
 C         2.170837        -0.590918         1.086635
 H        -0.591401         0.613372         0.727063
 H        -0.210605         0.750258        -1.048221
 H        -0.456013        -0.684424        -0.298096
 H         2.403123         1.635482        -1.208565
 H         2.138666         2.147167         0.568060
 H         4.549584         1.810636         1.115077
 H         4.035756        -0.316144        -1.581161
 H         4.320415        -1.465904        -0.291611
 H         1.451969        -2.065545        -1.883336
 H         1.799018        -0.909713         2.009146
