19
Iteration:   899
 C        -0.259298         0.240365         0.032306
 C         1.339222         0.128742         0.094341
 C         2.336201         1.271710        -0.005171
 C         3.357356         0.343185         0.591956
 O         4.567593         0.907352         1.180514
 C         3.670919        -0.531207        -0.664524
 C         2.271766        -1.038078        -0.394163
 O         1.842207        -2.106945        -1.179544
 C         2.238697        -0.636807         1.066632
 H        -0.647920         0.964020         0.831741
 H        -0.565189         0.505688        -0.991176
 H        -0.791697        -0.685265         0.266968
 H         2.570453         1.681137        -1.046799
 H         2.055846         2.203816         0.567543
 H         4.892608         0.140329         1.660211
 H         4.114112        -0.080219        -1.538455
 H         4.346362        -1.397735        -0.433778
 H         2.281246        -2.923591        -0.790981
 H         2.042418        -1.108938         1.908485
