19
Iteration:  2631charge 0 multiplicity 1
 C        -0.009437         0.220652        -0.115109
 C         1.396866         0.161794         0.037471
 C         2.381575         1.362687        -0.069392
 C         3.464595         0.335618         0.570768
 O         4.448934         0.941566         1.355279
 C         3.718264        -0.663993        -0.610706
 C         2.244050        -1.128242        -0.462563
 O         1.695092        -2.227589        -0.966568
 C         2.192967        -0.557984         1.046066
 H        -0.616026         0.642709         0.751547
 H        -0.307629         0.783527        -1.074436
 H        -0.465836        -0.881255        -0.260919
 H         2.650426         1.579243        -1.115210
 H         2.075337         2.293881         0.539461
 H         4.564151         1.780096         0.862378
 H         4.023914        -0.438430        -1.661727
 H         4.409288        -1.459483        -0.122432
 H         1.308615        -2.037630        -1.809480
 H         1.702921        -1.026935         2.040680
