19
Iteration:  3142charge 0 multiplicity 1
 C        -0.100442         0.221729        -0.145760
 C         1.424543         0.220423        -0.166496
 C         2.432781         1.484073        -0.087776
 C         3.399000         0.455912         0.490410
 O         4.521369         0.666825         1.272422
 C         3.710163        -0.568820        -0.635598
 C         2.169199        -1.077132        -0.407054
 O         1.770730        -2.394104        -0.753597
 C         2.130923        -0.421413         1.002606
 H        -0.548232         1.177541         0.347041
 H        -0.557822         0.104646        -1.152533
 H        -0.485730        -0.622626         0.500903
 H         3.033886         2.041707        -0.742810
 H         1.997358         2.223087         0.729968
 H         4.165221         0.986037         2.129468
 H         3.889835         0.044425        -1.562596
 H         4.552636        -1.233677        -0.328411
 H         1.905520        -2.537002        -1.733825
 H         1.695913        -0.906023         2.022697
