19
Iteration:  2781charge 0 multiplicity 1
 C        -0.103936         0.152484        -0.104147
 C         1.419282         0.214184        -0.067831
 C         2.408173         1.324073        -0.055930
 C         3.409310         0.354930         0.550949
 O         4.467304         0.967309         1.284769
 C         3.711457        -0.735818        -0.546666
 C         2.268874        -1.071863        -0.423839
 O         1.733339        -2.205061        -0.972603
 C         2.115816        -0.514900         1.098954
 H        -0.583958         0.933627         0.487198
 H        -0.671651         0.456267        -1.034766
 H        -0.569236        -0.740495         0.201597
 H         2.579138         1.873285        -1.035315
 H         2.284850         2.098672         0.693208
 H         5.269619         0.933087         0.808130
 H         4.379900        -0.352742        -1.362210
 H         4.351655        -1.559899        -0.242351
 H         1.452882        -1.952325        -1.871365
 H         1.858693        -1.131272         2.065925
