19
Iteration:  4421
 C        -0.054265         0.319001        -0.269599
 C         1.393673         0.229461         0.028454
 C         2.366547         1.310393         0.072801
 C         3.389715         0.381383         0.603960
 O         4.512698         1.027431         1.180325
 C         3.695217        -0.656191        -0.578493
 C         2.224206        -1.148558        -0.429713
 O         1.756972        -2.319995        -0.890924
 C         2.164434        -0.590334         1.049501
 H        -0.802456         0.833608         0.346165
 H        -0.212804         0.657833        -1.297319
 H        -0.374650        -0.769007        -0.247689
 H         2.526544         1.889358        -0.904375
 H         2.077487         2.015661         0.840603
 H         5.186304         0.316708         1.309579
 H         4.121212        -0.307282        -1.511674
 H         4.365920        -1.470948        -0.253137
 H         1.065706        -2.017422        -1.504778
 H         1.892167        -1.174811         1.991106
