19
Iteration:  3865
 C        -0.204402         0.303816        -0.282217
 C         1.366025         0.168775        -0.068419
 C         2.387134         1.294776        -0.066857
 C         3.414150         0.376026         0.595802
 O         4.586029         0.905969         1.171602
 C         3.775114        -0.699377        -0.472941
 C         2.274180        -1.096120        -0.349161
 O         1.713320        -2.225168        -0.945439
 C         2.239152        -0.624673         1.112972
 H        -0.667889         1.023182         0.447145
 H        -0.438734         0.631893        -1.312165
 H        -0.710028        -0.621236         0.083324
 H         2.668096         1.760987        -0.974187
 H         1.949836         2.067464         0.640905
 H         4.480923         1.634831         1.771600
 H         4.072077        -0.345336        -1.488398
 H         4.428297        -1.392598         0.104342
 H         0.900196        -2.007965        -1.434757
 H         1.835696        -0.901785         2.026597
