19
Iteration:   615charge 0 multiplicity 1
 C        -0.086880         0.197338        -0.101655
 C         1.423038         0.067631         0.010488
 C         2.446439         1.221395         0.028004
 C         3.466226         0.365484         0.564964
 O         4.373882         1.075255         1.261305
 C         3.655082        -0.591380        -0.738783
 C         2.283016        -1.100252        -0.400461
 O         1.645201        -2.073625        -1.035685
 C         2.275579        -0.685171         1.099236
 H        -0.368507         0.710706         0.882136
 H        -0.281850         0.887786        -0.972948
 H        -0.727147        -0.657855        -0.342749
 H         2.766196         1.731108        -0.959136
 H         2.269627         1.962714         0.796649
 H         5.205815         0.517697         1.403631
 H         3.588901         0.000503        -1.683515
 H         4.508097        -1.302497        -0.803670
 H         1.628721        -2.883774        -0.465461
 H         1.861306        -1.252256         2.106085
