19
Iteration:    40charge 0 multiplicity 1
 C        -0.135056         0.127010        -0.062842
 C         1.366618         0.135049         0.016956
 C         2.279674         1.376308         0.081351
 C         3.512993         0.420364         0.467895
 O         4.572999         0.838265         1.365977
 C         3.705806        -0.606981        -0.860849
 C         2.326625        -1.096106        -0.476207
 O         1.647838        -2.182115        -0.804875
 C         2.288522        -0.610956         0.938638
 H        -0.616923         0.504309         0.866318
 H        -0.531149         0.870785        -0.815338
 H        -0.555560        -0.876931        -0.233120
 H         2.358893         2.092520        -0.779109
 H         2.049772         2.164152         0.865154
 H         4.581093         1.835679         1.276203
 H         3.709504         0.012757        -1.785292
 H         4.398822        -1.437070        -0.678218
 H         1.287872        -2.021540        -1.731470
 H         1.964288        -1.159702         1.902939
