19
Iteration:  2598charge 0 multiplicity 1
 C        -0.105828         0.127802        -0.213320
 C         1.454789         0.098974        -0.081506
 C         2.305157         1.325939        -0.050588
 C         3.484087         0.356208         0.521978
 O         4.447971         0.951013         1.410533
 C         3.783702        -0.628298        -0.609781
 C         2.267493        -1.085620        -0.361975
 O         1.572999        -2.127092        -0.938394
 C         2.326959        -0.571229         1.019201
 H        -0.512496         0.862766         0.534675
 H        -0.468636         0.461277        -1.225891
 H        -0.500519        -0.938826         0.037087
 H         2.510962         1.899226        -0.898146
 H         1.975366         2.081079         0.723629
 H         5.355975         1.113794         0.940437
 H         4.163646        -0.411724        -1.622555
 H         4.451168        -1.413087        -0.098233
 H         0.869257        -1.908610        -1.571837
 H         1.934682        -0.983228         2.062237
