19
Iteration:  4626
 C        -0.102289         0.078450        -0.089393
 C         1.426368         0.206896        -0.154772
 C         2.441121         1.441927        -0.052479
 C         3.382713         0.403538         0.501916
 O         4.470821         0.684110         1.365143
 C         3.712751        -0.604993        -0.721202
 C         2.326300        -1.085957        -0.351041
 O         1.720154        -2.185259        -0.825467
 C         2.157102        -0.452122         0.970509
 H        -0.642642         0.714338         0.666213
 H        -0.605813         0.367709        -1.043652
 H        -0.469597        -0.946361        -0.024622
 H         2.582329         2.031597        -0.967934
 H         1.920460         2.109443         0.769489
 H         4.414456         1.515478         1.865676
 H         3.863222        -0.108937        -1.622493
 H         4.470598        -1.313598        -0.517836
 H         1.617721        -1.922757        -1.763309
 H         1.983207        -0.861296         1.883357
