19
Iteration:  1307charge 0 multiplicity 1
 C        -0.075119         0.346590        -0.184823
 C         1.425205         0.131060         0.010234
 C         2.242583         1.422045         0.075089
 C         3.489379         0.371791         0.493801
 O         4.498275         1.040978         1.306790
 C         3.746846        -0.614357        -0.725538
 C         2.301132        -1.159997        -0.471249
 O         1.585556        -2.369892        -0.847784
 C         2.341409        -0.661110         0.962291
 H        -0.444296         1.193921         0.404080
 H        -0.354724         0.401292        -1.231797
 H        -0.468376        -0.607217         0.175844
 H         2.515743         2.004269        -0.935291
 H         2.001845         1.983391         1.031795
 H         4.343489         0.752560         2.181167
 H         3.936650        -0.100925        -1.656049
 H         4.367821        -1.428634        -0.371176
 H         1.173319        -2.281899        -1.756841
 H         2.245475        -1.257216         2.013189
