19
Iteration:  4777
 C        -0.112997         0.117308        -0.179541
 C         1.435606         0.255240        -0.015952
 C         2.330638         1.447769         0.058584
 C         3.418416         0.430884         0.536927
 O         4.532838         0.769296         1.394149
 C         3.694386        -0.595483        -0.668564
 C         2.326899        -1.106718        -0.512916
 O         1.671638        -2.272171        -0.854829
 C         2.197969        -0.538852         0.917945
 H        -0.654411         0.191879         0.811124
 H        -0.551672         0.942930        -0.754292
 H        -0.373140        -0.842569        -0.561370
 H         2.443097         1.977554        -0.936610
 H         2.001544         2.140971         0.786515
 H         4.663511         1.719747         1.453253
 H         4.105058        -0.041350        -1.674837
 H         4.427332        -1.300976        -0.283821
 H         1.643383        -2.442829        -1.820427
 H         1.848243        -0.999373         1.838444
