19
Iteration:    37
 C        -0.141060         0.118169        -0.063584
 C         1.382804         0.137268         0.032928
 C         2.286374         1.416635         0.090446
 C         3.515900         0.400544         0.471726
 O         4.557989         0.845972         1.352609
 C         3.717341        -0.612608        -0.846718
 C         2.312115        -1.076209        -0.499381
 O         1.631820        -2.182061        -0.799898
 C         2.298931        -0.619520         0.938449
 H        -0.608124         0.500035         0.846447
 H        -0.479090         0.813609        -0.792363
 H        -0.550719        -0.876393        -0.236419
 H         2.391071         2.111696        -0.818028
 H         2.067771         2.111050         0.855040
 H         4.546008         1.808326         1.308654
 H         3.702952        -0.014304        -1.723105
 H         4.402640        -1.433499        -0.726949
 H         1.396029        -2.199458        -1.733218
 H         1.946233        -1.192737         1.815729
