19
Iteration:  1944
 C        -0.078046         0.316842        -0.078782
 C         1.426531         0.253812        -0.109763
 C         2.465322         1.435372        -0.067723
 C         3.388354         0.371495         0.528962
 O         4.488171         0.709186         1.329552
 C         3.659425        -0.586073        -0.581606
 C         2.163837        -1.056536        -0.436984
 O         1.881780        -2.394274        -0.947827
 C         2.137320        -0.487531         0.949685
 H        -0.628333         1.204603         0.178426
 H        -0.485574        -0.051892        -1.085618
 H        -0.601797        -0.315712         0.717540
 H         2.680094         1.847160        -0.986841
 H         2.084788         2.304843         0.496617
 H         4.316436         1.562437         1.743503
 H         4.193134        -0.113004        -1.380517
 H         4.294566        -1.465407        -0.293050
 H         0.927200        -2.647631        -0.773854
 H         1.673140        -0.913976         1.941319
