19
Iteration:   947charge 0 multiplicity 1
 C        -0.095852         0.128435        -0.053794
 C         1.453475         0.123530        -0.088908
 C         2.348916         1.302227         0.070998
 C         3.473348         0.354221         0.537591
 O         4.412287         1.040482         1.344911
 C         3.762154        -0.615979        -0.619455
 C         2.242281        -1.043168        -0.509641
 O         1.495804        -2.113039        -1.035645
 C         2.385492        -0.633960         0.999262
 H        -0.407762         0.601716         0.843897
 H        -0.557720         0.531063        -0.961461
 H        -0.512256        -0.915302         0.077645
 H         2.387285         2.136199        -0.675923
 H         1.968718         1.856692         0.861493
 H         5.247576         0.529632         1.311858
 H         4.106189        -0.360897        -1.660930
 H         4.513858        -1.354572        -0.368978
 H         1.995220        -2.816714        -1.425037
 H         2.193114        -0.987461         2.129064
