19
Iteration:  2480
 C        -0.127222         0.213575        -0.120452
 C         1.408609         0.179580        -0.035081
 C         2.406352         1.291850        -0.112542
 C         3.530345         0.387418         0.486489
 O         4.483742         1.042798         1.348642
 C         3.681762        -0.647665        -0.621090
 C         2.286635        -1.111611        -0.385410
 O         1.668616        -2.202275        -0.936442
 C         2.208599        -0.661475         1.059472
 H        -0.674053         0.503719         0.802592
 H        -0.487370         0.863304        -0.942507
 H        -0.460008        -0.854698        -0.384797
 H         2.706644         1.712231        -1.154715
 H         2.076103         2.224316         0.487679
 H         4.611335         0.565457         2.159434
 H         3.840807        -0.229221        -1.582468
 H         4.503304        -1.392762        -0.390697
 H         1.234561        -2.000249        -1.759777
 H         1.787714        -1.225371         2.033533
