19
Iteration:  2893charge 0 multiplicity 1
 C        -0.115049         0.125977        -0.300488
 C         1.397735         0.163043        -0.035908
 C         2.344064         1.348299         0.026143
 C         3.444771         0.401243         0.546377
 O         4.557089         0.801020         1.254933
 C         3.694821        -0.615649        -0.596957
 C         2.251223        -1.030981        -0.273392
 O         1.642962        -2.196893        -0.892163
 C         2.269229        -0.555340         1.080069
 H        -0.436684         0.918246         0.394810
 H        -0.328291         0.580424        -1.349659
 H        -0.643313        -0.863564        -0.152849
 H         2.581121         1.930130        -0.957588
 H         1.886216         1.993353         0.749336
 H         4.651030         1.800715         1.098205
 H         3.926198        -0.114607        -1.627815
 H         4.468766        -1.405160        -0.335281
 H         1.455314        -2.009355        -1.846200
 H         2.111959        -1.114586         2.001111
