19
Iteration:  1633charge 0 multiplicity 1
 C        -0.167210         0.302168        -0.134184
 C         1.383310         0.154222        -0.064763
 C         2.369539         1.368706        -0.089664
 C         3.407056         0.457449         0.496443
 O         4.479030         0.619639         1.308347
 C         3.728752        -0.613545        -0.653694
 C         2.275404        -1.037373        -0.414406
 O         1.884079        -2.228966        -0.845112
 C         2.132488        -0.544641         1.051426
 H        -0.382824         1.080180         0.593527
 H        -0.300207         0.700180        -1.133762
 H        -0.750836        -0.631438        -0.045448
 H         2.789156         1.752500        -1.053863
 H         1.942857         2.221336         0.599688
 H         4.436760         1.597137         1.586571
 H         3.974865        -0.141353        -1.614950
 H         4.391542        -1.305644        -0.151573
 H         1.016989        -2.091347        -1.309018
 H         1.841994        -1.061438         1.943033
