19
Iteration:   432charge 0 multiplicity 1
 C        -0.143026         0.104117        -0.058999
 C         1.372658         0.212114        -0.035035
 C         2.297396         1.457254        -0.103530
 C         3.352188         0.420618         0.485179
 O         4.448592         0.635662         1.295051
 C         3.720765        -0.532771        -0.697758
 C         2.308801        -0.996210        -0.334249
 O         1.760746        -2.144992        -0.939145
 C         2.269300        -0.461965         1.071267
 H        -0.513113         0.378165         0.962835
 H        -0.509235         0.754373        -0.860876
 H        -0.509897        -0.854812        -0.326972
 H         2.538922         1.936282        -1.094350
 H         2.098440         2.287800         0.542311
 H         5.186428         0.144008         0.952558
 H         3.836808        -0.110001        -1.741054
 H         4.333695        -1.446682        -0.410896
 H         2.274072        -2.958355        -0.675723
 H         2.084219        -0.982256         2.152812
