19
Iteration:  3986
 C        -0.118584         0.213187        -0.242412
 C         1.411996         0.157667        -0.050693
 C         2.426923         1.313550        -0.086876
 C         3.455714         0.324328         0.583882
 O         4.570307         0.979904         1.206954
 C         3.766310        -0.731321        -0.505291
 C         2.255351        -1.058574        -0.338683
 O         1.594143        -2.212912        -0.895378
 C         2.135744        -0.588145         1.027155
 H        -0.608820         0.740954         0.591682
 H        -0.446746         0.799461        -1.114526
 H        -0.605014        -0.833755        -0.218930
 H         2.831783         1.861965        -0.994036
 H         2.140556         2.082862         0.738544
 H         4.198057         1.659666         1.782398
 H         4.051177        -0.508991        -1.514605
 H         4.403674        -1.528678        -0.100443
 H         1.903729        -2.003549        -1.781051
 H         1.813035        -0.686019         2.097858
