19
Iteration:  2756charge 0 multiplicity 1
 C        -0.070716         0.113954        -0.179387
 C         1.463471         0.149909        -0.060778
 C         2.379593         1.366598        -0.024625
 C         3.447880         0.421460         0.566171
 O         4.477844         1.008176         1.296671
 C         3.685533        -0.654318        -0.555755
 C         2.267559        -1.150956        -0.388484
 O         1.568660        -2.176605        -0.953592
 C         2.292730        -0.616683         1.065098
 H        -0.696361         1.011804         0.181430
 H        -0.284908         0.263758        -1.271013
 H        -0.662366        -0.777928         0.084096
 H         2.600633         1.814945        -1.010492
 H         2.141538         2.214362         0.708821
 H         5.348135         0.515570         1.231343
 H         4.194627        -0.246568        -1.471712
 H         4.399796        -1.396496        -0.197530
 H         1.149607        -1.937481        -1.777491
 H         1.782921        -0.894439         2.090461
