19
Iteration:  2827charge 0 multiplicity 1
 C        -0.129391         0.277794        -0.119779
 C         1.379386         0.105228        -0.081547
 C         2.335089         1.420301        -0.085645
 C         3.439802         0.359605         0.489761
 O         4.376771         0.738527         1.454560
 C         3.764801        -0.526825        -0.732910
 C         2.311799        -1.077273        -0.413619
 O         1.746531        -2.331116        -0.755444
 C         2.257769        -0.475705         0.966366
 H        -0.466306         0.837014         0.690193
 H        -0.464586         0.932708        -0.941809
 H        -0.819046        -0.568163        -0.140768
 H         2.649302         1.943531        -1.069937
 H         1.990511         2.150887         0.585829
 H         5.219074         1.063338         1.010860
 H         3.679084        -0.213175        -1.777810
 H         4.620835        -1.240667        -0.800005
 H         1.654688        -2.163983        -1.693349
 H         1.963592        -0.841048         1.815003
