19
Iteration:  2287
 C        -0.030508         0.182021        -0.163187
 C         1.436632         0.203628         0.023730
 C         2.357298         1.378000        -0.159602
 C         3.456777         0.419202         0.481180
 O         4.488488         0.931589         1.276560
 C         3.643542        -0.719627        -0.492746
 C         2.239682        -1.085050        -0.337976
 O         1.735687        -2.223743        -1.062729
 C         2.241316        -0.541692         1.083438
 H        -0.452998         0.592637         0.726569
 H        -0.415007         0.598718        -1.147411
 H        -0.506500        -0.780985        -0.172885
 H         2.726771         1.715182        -1.163780
 H         1.912096         2.281067         0.525963
 H         4.295773         0.734060         2.271014
 H         3.965844        -0.537043        -1.553679
 H         4.245977        -1.435209         0.055087
 H         0.760514        -2.143496        -1.062092
 H         2.066462        -0.954380         1.990587
