19
Iteration:  1525charge 0 multiplicity 1
 C        -0.015155         0.067998        -0.316636
 C         1.448055         0.211537         0.050156
 C         2.378136         1.406660         0.027817
 C         3.405751         0.367273         0.550314
 O         4.521424         0.754487         1.254311
 C         3.641914        -0.633628        -0.710457
 C         2.278834        -1.026366        -0.325335
 O         1.642746        -2.119813        -0.964218
 C         2.232105        -0.510171         1.107835
 H        -0.652316         0.683197         0.344447
 H        -0.108921         0.328938        -1.408720
 H        -0.461974        -0.989181        -0.235999
 H         2.614524         1.902356        -0.871651
 H         2.184369         2.198581         0.810970
 H         4.516502         1.545306         1.890477
 H         3.705392        -0.076841        -1.703928
 H         4.413432        -1.418329        -0.617503
 H         1.083534        -2.620186        -0.360119
 H         1.960127        -0.879733         2.020291
