19
Iteration:   336
 C        -0.204333         0.090714        -0.157715
 C         1.353700         0.083999         0.065094
 C         2.265262         1.326810         0.007997
 C         3.497542         0.405818         0.537923
 O         4.619388         0.791756         1.255040
 C         3.675871        -0.565945        -0.601415
 C         2.204355        -1.007953        -0.332098
 O         1.630181        -2.046236        -1.046449
 C         2.331102        -0.563633         1.118063
 H        -0.628527         1.069334         0.147660
 H        -0.375026         0.268734        -1.283716
 H        -0.687389        -0.839748         0.138498
 H         2.496187         1.682012        -1.002398
 H         2.188959         2.261151         0.648237
 H         5.110761         1.286181         0.618779
 H         3.890287        -0.195763        -1.649853
 H         4.370299        -1.374004        -0.250653
 H         2.378591        -2.633371        -1.204237
 H         2.087990        -1.257517         1.971144
