19
Iteration:  3892
 C        -0.005541         0.292944        -0.286420
 C         1.415592         0.261414        -0.012056
 C         2.356292         1.368721        -0.011287
 C         3.433984         0.368388         0.541311
 O         4.493177         0.834421         1.275210
 C         3.700670        -0.656327        -0.670410
 C         2.190122        -1.040844        -0.438149
 O         1.708910        -2.329592        -0.728929
 C         2.217524        -0.588031         0.995409
 H        -0.537532         1.148172         0.117168
 H        -0.150078         0.378947        -1.369018
 H        -0.424585        -0.584840         0.233314
 H         2.558657         2.158792        -0.817971
 H         1.902865         1.898181         0.836421
 H         4.347279         1.628229         1.799051
 H         3.971857        -0.199153        -1.688956
 H         4.408670        -1.428983        -0.328228
 H         1.472098        -2.425840        -1.681066
 H         1.830414        -1.303553         1.862296
