19
Iteration:  2024
 C        -0.076308         0.189790        -0.420764
 C         1.379490         0.143328        -0.040694
 C         2.451763         1.287490         0.009983
 C         3.475769         0.336921         0.532882
 O         4.567770         0.907444         1.331478
 C         3.704873        -0.643762        -0.658908
 C         2.305003        -1.044164        -0.363189
 O         1.562085        -2.216364        -0.790418
 C         2.220705        -0.553508         1.055164
 H        -0.687985         0.507512         0.501401
 H        -0.374677         0.934332        -1.172275
 H        -0.312197        -0.817393        -0.692850
 H         2.614960         1.849385        -0.873886
 H         2.290598         1.885903         0.934762
 H         4.198990         1.689303         1.746509
 H         3.926759        -0.070073        -1.587770
 H         4.379131        -1.431560        -0.308751
 H         0.845766        -1.892595        -1.407681
 H         1.825840        -0.883558         1.953180
