19
Iteration:  4246charge 0 multiplicity 1
 C        -0.044920         0.313798        -0.277699
 C         1.425074         0.165668        -0.086642
 C         2.379286         1.380588        -0.009857
 C         3.423721         0.447360         0.526623
 O         4.408354         0.879992         1.312967
 C         3.760879        -0.620976        -0.614528
 C         2.219610        -1.148454        -0.369384
 O         1.666242        -2.282456        -0.844376
 C         2.280067        -0.628687         1.021933
 H        -0.492938         1.160082         0.339826
 H        -0.239286         0.578955        -1.341548
 H        -0.519984        -0.706833        -0.056185
 H         2.623299         1.972949        -0.956600
 H         2.043446         2.128416         0.706692
 H         5.119783         0.405299         0.969486
 H         4.046947        -0.168760        -1.596551
 H         4.648508        -1.140913        -0.178338
 H         0.778990        -2.471065        -0.439538
 H         1.785054        -0.804269         1.890446
