19
Iteration:  4688charge 0 multiplicity 1
 C        -0.187958         0.414156        -0.147928
 C         1.378381         0.110970        -0.077486
 C         2.285342         1.310975         0.100217
 C         3.464396         0.339437         0.531874
 O         4.452056         0.956850         1.182212
 C         3.793193        -0.683190        -0.626058
 C         2.298503        -1.074188        -0.428050
 O         1.798024        -2.254990        -0.897106
 C         2.232850        -0.676874         1.012339
 H        -0.240933         1.434927         0.280011
 H        -0.450063         0.398420        -1.223910
 H        -0.721514        -0.303904         0.424887
 H         2.318279         2.075349        -0.734758
 H         1.969860         1.735286         0.994327
 H         4.162621         0.908386         2.113577
 H         4.325751        -0.083023        -1.506744
 H         4.393888        -1.549895        -0.285635
 H         1.479497        -2.107484        -1.810337
 H         1.904016        -1.208122         1.919880
