19
Iteration:  3304
 C        -0.133016         0.353910        -0.151524
 C         1.342893         0.140994        -0.148536
 C         2.437798         1.355176        -0.024968
 C         3.499246         0.417112         0.522331
 O         4.511324         0.842246         1.353158
 C         3.675094        -0.578231        -0.735829
 C         2.266571        -1.128547        -0.401819
 O         1.747919        -2.386369        -0.791184
 C         2.190040        -0.524153         0.998188
 H        -0.426756         1.380736         0.296161
 H        -0.415699         0.301416        -1.191711
 H        -0.652199        -0.393991         0.423925
 H         2.621910         2.107969        -0.966412
 H         2.023008         2.008653         0.714109
 H         4.115529         1.187931         2.104759
 H         3.785886        -0.277042        -1.759998
 H         4.433042        -1.338598        -0.459585
 H         1.338060        -2.229959        -1.663073
 H         2.007295        -1.057550         1.937305
