19
Iteration:   747
 C        -0.128410         0.193871         0.045813
 C         1.413229         0.140193         0.010831
 C         2.341439         1.362758         0.056214
 C         3.408524         0.395250         0.597235
 O         4.416264         1.006864         1.258172
 C         3.763934        -0.591146        -0.686643
 C         2.285521        -1.060735        -0.534065
 O         1.630914        -2.148300        -1.095874
 C         2.334886        -0.720137         0.962545
 H        -0.454217         1.033595         0.742983
 H        -0.657466         0.607628        -0.832192
 H        -0.546689        -0.722596         0.450101
 H         2.643959         1.656973        -0.991028
 H         2.048466         2.114253         0.738613
 H         4.747524         0.375588         1.975387
 H         4.096292        -0.178681        -1.707647
 H         4.475752        -1.436509        -0.410992
 H         1.981431        -2.979929        -0.693116
 H         2.187035        -1.404815         1.811578
