19
Iteration:  1556charge 0 multiplicity 1
 C        -0.115203         0.218975        -0.246915
 C         1.426979         0.084204         0.030612
 C         2.358654         1.313503        -0.047118
 C         3.455091         0.402336         0.535775
 O         4.506237         0.904245         1.331259
 C         3.820482        -0.616380        -0.628789
 C         2.293929        -1.066215        -0.429447
 O         1.441708        -2.130242        -0.925309
 C         2.315209        -0.607390         1.017506
 H        -0.443476         0.971651         0.375525
 H        -0.293022         0.691720        -1.176932
 H        -0.542066        -0.752684        -0.114615
 H         2.529402         1.696262        -1.061545
 H         2.246278         2.117792         0.760867
 H         4.192219         1.358369         2.080644
 H         4.236368        -0.268073        -1.592321
 H         4.535398        -1.380895        -0.324993
 H         1.970583        -2.965326        -0.921646
 H         2.044761        -1.168018         1.816320
