19
Iteration:  2103charge 0 multiplicity 1
 C        -0.105351         0.374703        -0.168350
 C         1.355215         0.202338        -0.060892
 C         2.439730         1.334337        -0.122337
 C         3.404928         0.378384         0.552046
 O         4.512884         0.843233         1.284341
 C         3.662328        -0.657750        -0.569406
 C         2.253938        -1.080998        -0.347586
 O         1.762079        -2.257303        -0.985538
 C         2.159808        -0.573719         1.031588
 H        -0.464346         1.200741         0.534907
 H        -0.256530         0.485705        -1.211509
 H        -0.569314        -0.518404         0.120089
 H         2.814168         1.738489        -1.079483
 H         1.904452         2.138625         0.347285
 H         4.142620         1.055901         2.173564
 H         3.950004        -0.337137        -1.633320
 H         4.259322        -1.493974        -0.232340
 H         2.251931        -3.023056        -0.560157
 H         1.835558        -0.919070         2.088792
