19
Iteration:  1875charge 0 multiplicity 1
 C        -0.049743         0.212717        -0.343403
 C         1.382275         0.208876         0.094150
 C         2.443304         1.362575         0.001995
 C         3.430275         0.397622         0.566456
 O         4.536272         0.884311         1.160730
 C         3.657386        -0.635101        -0.593986
 C         2.301868        -1.062480        -0.277025
 O         1.665975        -2.199708        -0.999030
 C         2.143393        -0.611145         1.115492
 H        -0.730645         0.957467         0.104793
 H         0.063461         0.254666        -1.446260
 H        -0.434424        -0.843233         0.001744
 H         2.816835         1.853786        -0.840049
 H         2.362111         2.207133         0.596062
 H         4.452909         0.747272         2.064231
 H         3.948734        -0.254295        -1.564178
 H         4.264774        -1.460815        -0.381339
 H         0.714510        -2.315636        -0.763017
 H         1.917474        -1.142763         1.989596
