19
Iteration:   979
 C        -0.079301         0.065202        -0.183595
 C         1.438828         0.200500         0.076753
 C         2.363979         1.412933         0.033089
 C         3.384484         0.374518         0.553548
 O         4.448703         0.815184         1.366903
 C         3.674020        -0.468076        -0.763357
 C         2.300605        -0.989097        -0.476050
 O         1.605332        -2.121235        -0.922385
 C         2.326282        -0.650521         0.973960
 H        -0.707209         0.583842         0.526130
 H        -0.385340         0.559961        -1.109759
 H        -0.278916        -1.044043        -0.215321
 H         2.528157         1.733266        -1.080118
 H         1.989513         2.158350         0.706561
 H         5.164758         0.225149         1.176425
 H         3.659735         0.050017        -1.753064
 H         4.498561        -1.166020        -0.550859
 H         1.803182        -2.805555        -0.220196
 H         2.262662        -1.302409         1.955161
