19
Iteration:  3536
 C        -0.028803         0.051426        -0.301419
 C         1.447237         0.238983        -0.039097
 C         2.423815         1.369355        -0.069149
 C         3.483648         0.389447         0.513088
 O         4.533507         0.856710         1.298338
 C         3.740270        -0.577780        -0.647220
 C         2.256362        -1.048793        -0.284888
 O         1.418619        -2.199931        -0.879688
 C         2.298125        -0.579479         1.087376
 H        -0.644939         0.801327         0.349351
 H        -0.319077         0.093587        -1.386914
 H        -0.349276        -0.963398         0.217947
 H         2.687584         1.925950        -0.991974
 H         2.065002         2.125840         0.746202
 H         4.216096         1.439902         1.963068
 H         3.967857        -0.300693        -1.698262
 H         4.388772        -1.334744        -0.202017
 H         1.486734        -2.205036        -1.836360
 H         2.130662        -0.781144         2.156159
