19
Iteration:  1219charge 0 multiplicity 1
 C        -0.003223         0.172723        -0.134301
 C         1.411408         0.190258        -0.075977
 C         2.303177         1.345429         0.049166
 C         3.429654         0.373064         0.515442
 O         4.460244         0.867755         1.331225
 C         3.693205        -0.605017        -0.706034
 C         2.310220        -1.058155        -0.455196
 O         1.667815        -2.210745        -0.788452
 C         2.242273        -0.595688         0.984582
 H        -0.442694         0.634418         0.763809
 H        -0.316991         0.651637        -1.044462
 H        -0.472678        -0.847672        -0.166709
 H         2.618585         1.937547        -0.907883
 H         2.069040         2.050920         0.913126
 H         4.653620         1.662808         0.871624
 H         3.847827        -0.176494        -1.724068
 H         4.436757        -1.358637        -0.423300
 H         1.318391        -2.240376        -1.712404
 H         1.912557        -1.271406         1.742523
