19
Iteration:  2518charge 0 multiplicity 1
 C        -0.084961         0.362289        -0.189278
 C         1.399491         0.168248        -0.018889
 C         2.292396         1.423497         0.081157
 C         3.350904         0.472542         0.502940
 O         4.513143         0.849646         1.231903
 C         3.691393        -0.500350        -0.610131
 C         2.252509        -1.104415        -0.463507
 O         1.726056        -2.383506        -0.830122
 C         2.306431        -0.657785         0.962306
 H        -0.599789         1.121152         0.428789
 H        -0.258940         0.365629        -1.360845
 H        -0.537781        -0.581823         0.049930
 H         2.462516         1.914941        -0.869108
 H         2.093954         1.992502         0.932705
 H         4.361667         0.264965         2.080744
 H         4.039374        -0.088806        -1.654211
 H         4.337798        -1.288109        -0.255959
 H         2.033504        -2.675461        -1.715740
 H         2.055570        -1.020789         1.878266
