19
Iteration:  4997
 C        -0.116241         0.290233        -0.067082
 C         1.387110         0.183767        -0.027232
 C         2.426695         1.317657        -0.054335
 C         3.394980         0.403560         0.528423
 O         4.412312         0.918037         1.346280
 C         3.658095        -0.530810        -0.672673
 C         2.262784        -1.109864        -0.463904
 O         1.828657        -2.314899        -0.939496
 C         2.229160        -0.592323         0.988056
 H        -0.408433         0.638385         0.931477
 H        -0.588595         0.942940        -0.816752
 H        -0.592360        -0.774218        -0.148930
 H         2.776322         1.644001        -1.114104
 H         1.943091         2.131850         0.470083
 H         4.614278         0.182500         2.064443
 H         4.175626        -0.201229        -1.524335
 H         4.316688        -1.167777        -0.138842
 H         1.387545        -2.208797        -1.797829
 H         1.925501        -0.953347         1.907275
