19
Iteration:  2753
 C        -0.045845         0.113834        -0.205522
 C         1.481593         0.148737        -0.037348
 C         2.375395         1.392596        -0.036360
 C         3.425169         0.423839         0.562938
 O         4.479968         1.000802         1.295222
 C         3.680128        -0.654470        -0.584048
 C         2.270418        -1.128379        -0.408898
 O         1.565822        -2.189100        -0.929941
 C         2.291500        -0.634119         1.087946
 H        -0.635853         0.990459         0.239608
 H        -0.269014         0.204859        -1.273321
 H        -0.720999        -0.774682         0.086066
 H         2.613050         1.714137        -1.044227
 H         2.089267         2.164979         0.793604
 H         5.228800         0.461066         1.316163
 H         4.122355        -0.152222        -1.492647
 H         4.363676        -1.426244        -0.094763
 H         1.168164        -1.805985        -1.759257
 H         1.878803        -0.875674         1.962969
