19
Iteration:  4471
 C        -0.005028         0.048523        -0.132369
 C         1.463594         0.177317        -0.005087
 C         2.391387         1.514563        -0.144813
 C         3.454962         0.458121         0.485276
 O         4.471246         0.821491         1.415264
 C         3.743265        -0.592643        -0.637398
 C         2.238558        -1.085638        -0.436794
 O         1.509492        -2.310875        -0.932466
 C         2.298205        -0.444775         1.039326
 H        -0.546338         0.928667         0.352803
 H        -0.383692         0.026406        -1.195920
 H        -0.341844        -0.784242         0.413993
 H         2.620435         1.819893        -1.128291
 H         2.036304         2.422102         0.457602
 H         4.090480         0.808881         2.382301
 H         4.087724        -0.398494        -1.728575
 H         4.488876        -1.312984        -0.313428
 H         1.407031        -2.120619        -1.880521
 H         2.141811        -1.036136         2.017981
