19
Iteration:  3542
 C        -0.046087         0.047715        -0.281872
 C         1.497520         0.220808        -0.035157
 C         2.393923         1.386977        -0.070297
 C         3.515452         0.407399         0.531348
 O         4.531111         0.851824         1.300352
 C         3.746385        -0.586994        -0.622507
 C         2.229372        -1.068108        -0.316047
 O         1.375476        -2.224274        -0.882182
 C         2.279078        -0.551870         1.084013
 H        -0.753719         0.739706         0.082178
 H        -0.275516         0.181342        -1.324241
 H        -0.214073        -0.858349         0.116650
 H         2.673559         1.906829        -0.983210
 H         2.199051         2.161952         0.727158
 H         4.198268         1.508683         1.911786
 H         3.931812        -0.149590        -1.619947
 H         4.615608        -1.211959        -0.282079
 H         1.614707        -2.217118        -1.838052
 H         2.422294        -0.948064         2.167680
