19
Iteration:  2648charge 0 multiplicity 1
 C        -0.150166         0.254469        -0.152717
 C         1.417464         0.178436        -0.000557
 C         2.355986         1.327106        -0.121410
 C         3.443044         0.416801         0.501471
 O         4.518558         0.852758         1.362930
 C         3.680854        -0.643839        -0.596604
 C         2.211111        -1.041458        -0.376956
 O         1.767433        -2.322494        -0.925373
 C         2.220257        -0.560623         1.010212
 H        -0.507140         0.761883         0.710158
 H        -0.503733         0.940000        -0.918841
 H        -0.544989        -0.684423        -0.228064
 H         2.610160         1.966985        -1.033439
 H         2.106457         2.028235         0.632533
 H         4.544325         1.768567         1.580495
 H         4.021780        -0.191976        -1.537683
 H         4.221588        -1.505701        -0.317513
 H         1.651575        -2.301842        -1.870892
 H         1.997989        -1.017345         1.943720
