19
Iteration:  2682charge 0 multiplicity 1
 C        -0.038102         0.278358        -0.219844
 C         1.365627         0.230348        -0.019043
 C         2.291408         1.425099        -0.043611
 C         3.389320         0.407162         0.525528
 O         4.500720         0.725877         1.231200
 C         3.731135        -0.488608        -0.673255
 C         2.277371        -1.110827        -0.433128
 O         1.803476        -2.322160        -0.700831
 C         2.160455        -0.556665         0.947028
 H        -0.343496         0.817470         0.642754
 H        -0.458292         0.739626        -1.124542
 H        -0.548430        -0.606379        -0.048158
 H         2.580691         2.127284        -0.886940
 H         1.986437         1.913328         0.836350
 H         4.330757         0.637832         2.133398
 H         3.939505        -0.071654        -1.669895
 H         4.450780        -1.266227        -0.458288
 H         1.761497        -2.492271        -1.669620
 H         1.625509        -1.052308         1.874271
