19
Iteration:  2741charge 0 multiplicity 1
 C         0.031789         0.128316        -0.293585
 C         1.436086         0.126264         0.063096
 C         2.363369         1.361933        -0.040499
 C         3.392390         0.391536         0.545884
 O         4.452406         0.956654         1.274284
 C         3.707792        -0.595569        -0.641580
 C         2.272079        -1.025728        -0.372693
 O         1.580327        -2.201179        -0.862797
 C         2.267820        -0.605508         1.059128
 H        -0.309623         1.012887         0.279473
 H        -0.215391         0.238318        -1.351152
 H        -0.326950        -0.828191         0.204178
 H         2.586157         1.957771        -0.957638
 H         1.940579         2.165300         0.654493
 H         4.891832         0.124150         1.674084
 H         3.940578        -0.271438        -1.684283
 H         4.475761        -1.415964        -0.362592
 H         1.055658        -1.923244        -1.667045
 H         2.090762        -1.086845         1.913781
