19
Iteration:  4809
 C        -0.134624         0.431052        -0.073360
 C         1.415155         0.122346        -0.022596
 C         2.346165         1.280071        -0.001111
 C         3.389550         0.301540         0.556613
 O         4.407573         0.912793         1.335043
 C         3.651886        -0.592889        -0.645629
 C         2.302761        -1.107205        -0.469252
 O         1.863596        -2.283606        -0.917302
 C         2.256351        -0.701335         0.958287
 H        -0.357953         0.921450         0.883902
 H        -0.201247         1.129321        -0.916825
 H        -0.763706        -0.331895        -0.390501
 H         2.574580         1.763202        -1.016608
 H         2.024386         1.947745         0.784552
 H         4.093665         1.894041         1.488768
 H         3.980031         0.037269        -1.580691
 H         4.343893        -1.391210        -0.488727
 H         1.675851        -2.297945        -1.859373
 H         1.883541        -1.126673         1.899698
