19
Iteration:   909
 C        -0.149754         0.243563         0.052459
 C         1.339464         0.145905         0.132315
 C         2.327709         1.271538        -0.039037
 C         3.436150         0.368089         0.505781
 O         4.515289         0.937412         1.169093
 C         3.673706        -0.553774        -0.586725
 C         2.260046        -1.085303        -0.411051
 O         1.808337        -2.110910        -1.213454
 C         2.132263        -0.677196         1.121905
 H        -0.649428         0.989230         0.771723
 H        -0.535801         0.574088        -0.936126
 H        -0.408358        -0.777273         0.244040
 H         2.540624         1.614086        -1.102329
 H         2.351505         2.113611         0.788871
 H         4.945102         0.342266         1.735860
 H         3.854230         0.114623        -1.427804
 H         4.431629        -1.359331        -0.450802
 H         2.409915        -2.905978        -1.138278
 H         1.955450        -1.044696         2.021470
