19
Iteration:  1999
 C         0.026041         0.266330        -0.308244
 C         1.438183         0.085559         0.055372
 C         2.398367         1.389672        -0.068411
 C         3.363533         0.430452         0.591445
 O         4.512658         0.921638         1.216032
 C         3.684843        -0.751861        -0.536394
 C         2.303046        -1.103776        -0.345132
 O         1.607945        -2.197327        -1.023942
 C         2.225368        -0.616778         1.127868
 H        -0.516611         0.900181         0.400537
 H        -0.067862         0.828540        -1.315280
 H        -0.429244        -0.817813        -0.368750
 H         2.569720         1.746767        -1.040779
 H         2.046159         2.198845         0.613251
 H         4.321879         1.546744         1.869590
 H         4.117951        -0.353673        -1.409326
 H         4.294490        -1.518477        -0.003408
 H         0.647292        -2.010677        -1.007420
 H         2.131417        -1.080105         2.102931
