19
Iteration:  1605charge 0 multiplicity 1
 C        -0.150436         0.361950        -0.051671
 C         1.381097         0.239068        -0.073693
 C         2.332151         1.473022        -0.102860
 C         3.384164         0.409760         0.525310
 O         4.604797         0.725826         1.336316
 C         3.620750        -0.652803        -0.565889
 C         2.212835        -1.142159        -0.399303
 O         1.866478        -2.439004        -0.984935
 C         2.133517        -0.498036         0.997161
 H        -0.540471         1.226008         0.640331
 H        -0.416044         0.820216        -1.069842
 H        -0.474813        -0.690067         0.063892
 H         2.752798         1.928901        -1.000840
 H         1.881368         2.126012         0.604548
 H         4.372378         1.668343         1.710717
 H         4.099871        -0.172427        -1.461420
 H         4.368952        -1.381083        -0.143827
 H         1.926258        -2.316805        -1.962729
 H         1.838105        -0.677598         2.165676
