19
Iteration:   669charge 0 multiplicity 1
 C        -0.125669         0.113376        -0.206314
 C         1.358092         0.206972        -0.023861
 C         2.261219         1.372416         0.190084
 C         3.418365         0.307743         0.574128
 O         4.581986         0.869407         1.141205
 C         3.701049        -0.566506        -0.686046
 C         2.274471        -1.027483        -0.426569
 O         1.705065        -2.106114        -0.944585
 C         2.191796        -0.547314         1.054297
 H        -0.724087         0.556222         0.682407
 H        -0.521086         0.464807        -1.216044
 H        -0.398892        -0.960013        -0.172831
 H         2.315678         2.138901        -0.645899
 H         2.025827         1.982112         1.078938
 H         5.330183         0.250338         1.257024
 H         4.102488        -0.127211        -1.638108
 H         4.509016        -1.346132        -0.341976
 H         2.269000        -2.916761        -0.802324
 H         1.855461        -1.122600         2.054250
