19
Iteration:  1428charge 0 multiplicity 1
 C        -0.022137         0.256468        -0.044910
 C         1.419258         0.121364         0.006641
 C         2.450165         1.312947        -0.185009
 C         3.446897         0.372227         0.525769
 O         4.415566         0.953110         1.455857
 C         3.729850        -0.658108        -0.656998
 C         2.199241        -1.029582        -0.466280
 O         1.547876        -2.254425        -0.909413
 C         2.330057        -0.604675         0.937581
 H        -0.303570         0.584396         0.946227
 H        -0.362088         0.530874        -1.009130
 H        -0.364514        -0.801213         0.095221
 H         2.676470         1.769792        -1.142359
 H         2.218767         2.147513         0.484363
 H         4.194356         1.937665         1.639739
 H         4.010289        -0.163254        -1.600473
 H         4.279530        -1.563336        -0.381372
 H         1.862083        -2.330124        -1.825643
 H         2.040700        -1.111787         1.772966
