19
Iteration:   600
 C        -0.068207         0.199861        -0.047614
 C         1.435795         0.190913        -0.047194
 C         2.378195         1.350005        -0.005789
 C         3.462137         0.320152         0.510861
 O         4.407117         0.988596         1.316157
 C         3.681942        -0.544244        -0.739926
 C         2.268958        -1.094235        -0.414866
 O         1.606668        -2.175486        -0.980689
 C         2.304657        -0.653030         0.990782
 H        -0.474989         0.563550         0.904147
 H        -0.578274         0.753271        -0.891020
 H        -0.405688        -0.913924        -0.095693
 H         2.599193         1.955436        -0.883489
 H         2.041078         2.142741         0.798424
 H         4.935559         0.382983         1.804781
 H         4.007598        -0.129557        -1.707868
 H         4.419541        -1.430389        -0.425962
 H         1.927843        -3.009260        -0.551871
 H         2.051773        -1.116112         1.834302
