19
Iteration:  4119
 C        -0.079811         0.228243        -0.284843
 C         1.403068         0.234754         0.061415
 C         2.447586         1.366911        -0.071138
 C         3.436952         0.360041         0.505307
 O         4.449981         0.988534         1.308939
 C         3.683476        -0.709216        -0.582640
 C         2.206971        -1.076629        -0.379124
 O         1.677592        -2.197161        -0.991880
 C         2.175968        -0.603748         1.066758
 H        -0.543651         1.080294         0.192103
 H        -0.036175         0.149221        -1.369937
 H        -0.473490        -0.777407         0.109607
 H         2.777476         1.744287        -1.064256
 H         2.368123         2.245563         0.696954
 H         4.987939         0.180601         1.448847
 H         4.160929        -0.369154        -1.471933
 H         4.251982        -1.457671        -0.090420
 H         1.531408        -2.782224        -0.244657
 H         1.948199        -0.838335         2.043729
