19
Iteration:  1369charge 0 multiplicity 1
 C        -0.071195         0.140014        -0.252877
 C         1.347291         0.150344         0.040728
 C         2.361580         1.471482        -0.010989
 C         3.392757         0.454004         0.528635
 O         4.624547         0.786759         1.307749
 C         3.578866        -0.512559        -0.642297
 C         2.192309        -1.056737        -0.395947
 O         1.765842        -2.311136        -0.843849
 C         2.183865        -0.539810         1.061714
 H        -0.737423         0.793111         0.391606
 H        -0.379551         0.691658        -1.223102
 H        -0.379700        -1.001643        -0.316630
 H         2.601153         1.791924        -0.977108
 H         2.074895         2.287357         0.700798
 H         5.390697         0.365512         0.964705
 H         3.808676        -0.187380        -1.716482
 H         4.298311        -1.342755        -0.406990
 H         1.559191        -2.052265        -1.799007
 H         2.005338        -0.809218         2.143708
