19
Iteration:  2169
 C         0.032940         0.073986        -0.295247
 C         1.465773         0.195615        -0.034923
 C         2.397077         1.364032        -0.087450
 C         3.456992         0.341084         0.546757
 O         4.507608         0.830927         1.375515
 C         3.687010        -0.651004        -0.600906
 C         2.174427        -1.036385        -0.358584
 O         1.513406        -2.111641        -0.944628
 C         2.205495        -0.466288         1.095939
 H        -0.704957         0.966693         0.043757
 H        -0.105438        -0.091412        -1.374717
 H        -0.346038        -0.854977         0.097018
 H         2.815142         1.759176        -1.002755
 H         2.067851         2.043233         0.662065
 H         4.717909         1.764567         1.302716
 H         4.003963        -0.273929        -1.622630
 H         4.306593        -1.454095        -0.223417
 H         2.132640        -2.836876        -0.832931
 H         2.042713        -0.949411         1.991694
