19
Iteration:   323charge 0 multiplicity 1
 C        -0.165821         0.033129        -0.158010
 C         1.355597         0.249607        -0.001263
 C         2.395860         1.444425        -0.002084
 C         3.412211         0.384671         0.542913
 O         4.602428         0.760416         1.238585
 C         3.637111        -0.590529        -0.650240
 C         2.269478        -1.034995        -0.336969
 O         1.658283        -2.067244        -0.986449
 C         2.215647        -0.625859         1.124923
 H        -0.712891         0.701726         0.504429
 H        -0.480374        -0.044993        -1.193089
 H        -0.487796        -0.873868         0.299784
 H         2.571628         2.034586        -0.895738
 H         2.001524         2.038852         0.764097
 H         5.190818         1.359746         0.675141
 H         3.862539        -0.147715        -1.540484
 H         4.377409        -1.370103        -0.403676
 H         2.357665        -2.638112        -1.389408
 H         2.015467        -1.042237         2.034199
