19
Iteration:  1203
 C        -0.050684         0.330954        -0.236778
 C         1.400070         0.081530         0.085329
 C         2.393441         1.331725         0.067897
 C         3.443181         0.363680         0.529098
 O         4.385533         0.972952         1.342204
 C         3.678062        -0.525226        -0.783562
 C         2.256909        -1.046309        -0.475966
 O         1.642923        -2.331137        -0.762446
 C         2.361336        -0.758759         0.982707
 H        -0.532223         0.933367         0.550913
 H        -0.071689         0.827142        -1.249346
 H        -0.595773        -0.594574        -0.260049
 H         2.443060         1.950288        -0.859429
 H         1.995833         2.026809         0.843772
 H         4.881885         1.663221         0.873513
 H         4.038187        -0.051496        -1.706658
 H         4.465514        -1.303541        -0.692732
 H         1.218175        -2.234959        -1.623205
 H         2.223310        -1.395878         1.955136
