19
Iteration:  4208charge 0 multiplicity 1
 C        -0.121987         0.212972        -0.259516
 C         1.403016         0.280008        -0.124837
 C         2.427675         1.398651        -0.089648
 C         3.375681         0.387900         0.490970
 O         4.475954         0.758226         1.365542
 C         3.629752        -0.615521        -0.641664
 C         2.227478        -1.052413        -0.388488
 O         1.771281        -2.233110        -0.791750
 C         2.221006        -0.447644         1.014896
 H        -0.717419         0.476269         0.610952
 H        -0.534284         0.668545        -1.179302
 H        -0.416333        -0.815160        -0.455855
 H         2.786058         1.723225        -1.070635
 H         2.423442         2.193994         0.735490
 H         5.205109         0.132860         1.270024
 H         3.940179        -0.199494        -1.580132
 H         4.232814        -1.402587        -0.249118
 H         1.879830        -2.853435        -0.064392
 H         1.603632        -0.855303         1.899683
