19
Iteration:    48
 C        -0.134369         0.173836        -0.058807
 C         1.375923         0.147263        -0.026368
 C         2.284147         1.305816         0.051467
 C         3.451606         0.434064         0.471310
 O         4.576017         0.811142         1.358999
 C         3.656612        -0.527307        -0.848376
 C         2.331930        -1.068367        -0.361555
 O         1.668926        -2.233134        -0.879091
 C         2.294981        -0.594499         0.970951
 H        -0.504803         0.441639         0.927752
 H        -0.509207         0.773540        -0.850940
 H        -0.523985        -0.821462        -0.281572
 H         2.386865         1.879329        -0.931220
 H         1.994492         1.826218         0.924400
 H         4.764646         1.788627         1.217673
 H         3.926770        -0.212776        -1.851641
 H         4.483651        -1.194618        -0.648978
 H         1.014828        -1.766453        -1.461091
 H         2.235879        -0.991540         2.016212
