19
Iteration:  3225
 C         0.018211         0.140268        -0.278357
 C         1.435978         0.183346         0.003623
 C         2.454346         1.384480         0.020892
 C         3.475345         0.401197         0.516412
 O         4.523349         0.942833         1.204649
 C         3.681378        -0.728254        -0.578413
 C         2.238207        -1.134435        -0.357784
 O         1.604441        -2.228860        -0.862147
 C         2.130613        -0.574152         1.046153
 H        -0.538061         0.414375         0.646042
 H        -0.286962         0.956788        -1.018690
 H        -0.426341        -0.750420        -0.678022
 H         2.637157         1.954001        -1.060186
 H         2.189582         2.066904         0.822073
 H         4.228008         1.732487         1.595134
 H         4.081482        -0.233512        -1.474272
 H         4.549190        -1.319919        -0.245453
 H         0.963894        -1.847016        -1.474070
 H         1.666350        -1.045774         2.056876
