19
Iteration:  4735charge 0 multiplicity 1
 C        -0.108214         0.020582        -0.287035
 C         1.362304         0.151553         0.035365
 C         2.348683         1.344803        -0.020742
 C         3.387516         0.368103         0.591099
 O         4.579637         0.730437         1.310835
 C         3.702509        -0.513679        -0.713795
 C         2.286361        -1.013159        -0.350334
 O         1.697546        -2.091893        -0.851034
 C         2.214990        -0.541728         1.044181
 H        -0.718543         0.622743         0.427974
 H        -0.163945         0.408965        -1.317470
 H        -0.372290        -1.056603        -0.323659
 H         2.669505         1.758587        -0.971516
 H         2.166424         2.077323         0.773206
 H         4.471783         1.596499         1.598201
 H         3.637371        -0.081928        -1.711339
 H         4.517670        -1.193430        -0.585848
 H         1.367745        -1.808664        -1.735403
 H         1.976226        -0.914484         2.032610
