19
Iteration:  1302
 C        -0.100101         0.265622        -0.159058
 C         1.403803         0.156269         0.007680
 C         2.310424         1.409244         0.030601
 C         3.470931         0.376244         0.498639
 O         4.503962         1.019502         1.298437
 C         3.736115        -0.616536        -0.715588
 C         2.317456        -1.155290        -0.437193
 O         1.584533        -2.327366        -0.878378
 C         2.297521        -0.643105         0.992881
 H        -0.390114         1.180952         0.386981
 H        -0.491228         0.557531        -1.178030
 H        -0.515992        -0.683173         0.253112
 H         2.530251         1.878453        -0.843107
 H         2.036412         2.051443         0.855591
 H         4.321648         0.752862         2.260215
 H         4.052407        -0.040995        -1.629145
 H         4.458853        -1.419327        -0.424802
 H         1.303893        -2.350920        -1.789104
 H         2.357245        -1.082191         1.888442
