19
Iteration:  2789charge 0 multiplicity 1
 C        -0.123810         0.187336        -0.074011
 C         1.399524         0.177870        -0.060214
 C         2.396973         1.382686        -0.075331
 C         3.421807         0.348684         0.558231
 O         4.434729         0.917886         1.284122
 C         3.691697        -0.714199        -0.517556
 C         2.250005        -1.047323        -0.420525
 O         1.780320        -2.202710        -0.959982
 C         2.180711        -0.539721         1.035015
 H        -0.469196         1.017962         0.710209
 H        -0.354687         0.469771        -1.140932
 H        -0.483617        -0.836930         0.145873
 H         2.644817         1.777174        -1.074057
 H         2.209790         2.312049         0.607090
 H         5.179266         0.921136         0.743561
 H         4.198766        -0.346177        -1.510083
 H         4.194342        -1.568437        -0.039460
 H         1.452376        -2.231374        -1.877786
 H         1.695181        -1.070649         2.025638
