19
Iteration:   437charge 0 multiplicity 1
 C        -0.144843         0.104044        -0.092399
 C         1.402764         0.213676        -0.021944
 C         2.269714         1.410076        -0.097841
 C         3.443754         0.399010         0.506542
 O         4.442391         0.662154         1.284532
 C         3.691385        -0.543436        -0.705508
 C         2.287598        -1.036346        -0.325600
 O         1.765402        -2.130339        -0.963289
 C         2.256625        -0.421357         1.125720
 H        -0.437972         0.336266         0.923222
 H        -0.526859         0.745090        -0.912651
 H        -0.649329        -0.890868        -0.323175
 H         2.444251         1.956873        -1.022444
 H         2.168592         2.299358         0.612408
 H         5.218001         0.148322         0.915049
 H         3.741012        -0.039997        -1.656333
 H         4.344801        -1.390101        -0.551700
 H         2.213804        -2.955438        -0.737435
 H         1.983999        -0.790677         2.064019
