19
Iteration:  4933
 C        -0.081156         0.234794        -0.276496
 C         1.449481         0.139794         0.045150
 C         2.341788         1.378374         0.062752
 C         3.379521         0.339213         0.554565
 O         4.449640         0.845482         1.362038
 C         3.681887        -0.514729        -0.732445
 C         2.273779        -1.088298        -0.385850
 O         1.725361        -2.254940        -0.875695
 C         2.224765        -0.632766         1.061126
 H        -0.659152         0.930589         0.294882
 H        -0.181282         0.555796        -1.295124
 H        -0.526504        -0.820773        -0.194884
 H         2.627716         1.963870        -0.873416
 H         2.008833         2.100946         0.827309
 H         4.902464         1.538943         0.783389
 H         4.026233        -0.100367        -1.758846
 H         4.460608        -1.318780        -0.527011
 H         1.647694        -2.141029        -1.830464
 H         1.962689        -1.013763         1.981396
