19
Iteration:  4374
 C        -0.029414         0.246435        -0.252704
 C         1.416024         0.197872        -0.030382
 C         2.308002         1.322731        -0.093955
 C         3.427761         0.377199         0.494683
 O         4.427837         0.707899         1.364185
 C         3.693368        -0.558731        -0.685564
 C         2.265718        -1.031048        -0.422595
 O         1.738151        -2.252085        -0.665807
 C         2.230792        -0.571919         0.986526
 H        -0.479131         0.748139         0.647395
 H        -0.207027         1.008112        -1.031592
 H        -0.641601        -0.544725        -0.451209
 H         2.594036         1.784491        -1.023780
 H         2.080512         2.131917         0.631027
 H         4.703666         1.687742         1.151345
 H         3.774783        -0.012140        -1.684143
 H         4.494257        -1.256787        -0.586038
 H         1.638884        -2.349810        -1.620465
 H         1.951268        -0.866219         1.974559
