19
Iteration:  1028
 C        -0.123507         0.322044        -0.186883
 C         1.346460         0.244650         0.041817
 C         2.270657         1.480061         0.218296
 C         3.339527         0.370826         0.514899
 O         4.526233         0.838153         1.087237
 C         3.674449        -0.467667        -0.641295
 C         2.312939        -1.174158        -0.392823
 O         1.922736        -2.323397        -0.972049
 C         2.180974        -0.685492         1.003828
 H        -0.562413         0.951588         0.608030
 H        -0.441771         0.790355        -1.128633
 H        -0.558243        -0.639951        -0.112790
 H         2.480423         2.003030        -0.605099
 H         2.042938         2.046376         1.145992
 H         4.944243         0.027931         1.545398
 H         3.846498        -0.002266        -1.592258
 H         4.366564        -1.220424        -0.274613
 H         1.017698        -2.605486        -0.889155
 H         1.984820        -1.239713         1.872600
