19
Iteration:   842charge 0 multiplicity 1
 C        -0.079378         0.015758        -0.206031
 C         1.428921         0.122620        -0.066961
 C         2.433155         1.457724         0.143945
 C         3.450698         0.407075         0.479075
 O         4.432726         0.841612         1.416256
 C         3.606844        -0.416709        -0.840259
 C         2.281514        -1.048603        -0.435586
 O         1.552248        -2.134911        -0.880578
 C         2.360862        -0.658072         0.981179
 H        -0.474358         0.558295         0.696360
 H        -0.552933         0.563747        -1.079607
 H        -0.399349        -1.020717        -0.199486
 H         2.608663         2.134823        -0.701353
 H         2.152567         1.843100         1.201059
 H         5.300236         0.587957         0.966393
 H         3.542130         0.283306        -1.647845
 H         4.420637        -1.158381        -0.899793
 H         1.900499        -2.832223        -0.331507
 H         2.254804        -1.387279         1.878212
