19
Iteration:  1622charge 0 multiplicity 1
 C        -0.192511         0.361503        -0.133618
 C         1.349288         0.214786        -0.068885
 C         2.336209         1.376534        -0.114807
 C         3.387063         0.384197         0.514686
 O         4.515084         0.615310         1.299664
 C         3.706779        -0.572718        -0.545757
 C         2.321660        -1.057494        -0.332469
 O         1.902816        -2.338867        -0.929676
 C         2.159614        -0.468679         1.006652
 H        -0.536178         1.026114         0.670597
 H        -0.654124         0.785496        -1.018787
 H        -0.748938        -0.549399         0.126794
 H         2.432740         1.827678        -1.134822
 H         1.962433         2.212357         0.619352
 H         4.759970         1.543089         1.632499
 H         3.969572        -0.343342        -1.578919
 H         4.472513        -1.287158        -0.283861
 H         1.285179        -2.203939        -1.651916
 H         1.877118        -0.878565         1.908960
