19
Iteration:  3625
 C        -0.090887         0.443875        -0.142331
 C         1.409412         0.203162        -0.119765
 C         2.292297         1.356924        -0.145436
 C         3.408687         0.392930         0.583896
 O         4.539591         0.792745         1.235301
 C         3.631259        -0.598427        -0.568520
 C         2.233747        -1.121013        -0.391417
 O         1.905843        -2.396897        -0.847929
 C         2.179811        -0.562696         1.027487
 H        -0.245756         1.002317         0.781541
 H        -0.424007         0.981431        -1.052015
 H        -0.817445        -0.483753        -0.109152
 H         2.584274         1.964003        -1.075825
 H         1.879736         2.072616         0.705722
 H         4.287678         1.199015         2.056536
 H         3.912154        -0.218386        -1.578534
 H         4.360163        -1.392689        -0.323478
 H         1.036494        -2.239784        -1.246057
 H         1.854915        -1.177693         1.831008
