19
Iteration:  4701
 C        -0.042371         0.308095        -0.178817
 C         1.397847         0.110816         0.001791
 C         2.299991         1.343396         0.118576
 C         3.363853         0.352848         0.554479
 O         4.533473         0.971068         1.228546
 C         3.706409        -0.609538        -0.602857
 C         2.268606        -1.098891        -0.482271
 O         1.724408        -2.318823        -0.936954
 C         2.248027        -0.631108         0.977750
 H        -0.440991         1.316348         0.164285
 H        -0.288571         0.397475        -1.267944
 H        -0.749240        -0.365849         0.259091
 H         2.672658         2.052145        -0.644362
 H         1.964051         1.972274         0.926041
 H         4.333223         1.268790         2.150536
 H         4.048224        -0.351294        -1.628661
 H         4.340878        -1.350698        -0.202992
 H         1.328359        -2.171657        -1.816242
 H         2.075222        -1.089138         1.845648
