19
Iteration:    35
 C        -0.142175         0.110897        -0.060523
 C         1.399598         0.144406         0.043538
 C         2.297240         1.445318         0.087772
 C         3.511116         0.382117         0.476762
 O         4.542921         0.849787         1.337693
 C         3.719461        -0.609480        -0.826573
 C         2.297538        -1.048610        -0.509367
 O         1.616739        -2.190117        -0.798919
 C         2.309478        -0.629179         0.940697
 H        -0.594894         0.491369         0.855858
 H        -0.446212         0.784416        -0.830054
 H        -0.545627        -0.885795        -0.249491
 H         2.421240         2.072468        -0.831512
 H         2.063969         2.078159         0.924543
 H         4.520794         1.795524         1.335686
 H         3.743145        -0.028977        -1.737122
 H         4.446956        -1.433216        -0.767115
 H         1.478777        -2.346990        -1.750420
 H         1.968619        -1.202990         1.727742
