19
Iteration:  2204
 C        -0.140580         0.246943        -0.338881
 C         1.336655         0.201027        -0.107170
 C         2.330363         1.400013        -0.056710
 C         3.413745         0.371218         0.494316
 O         4.515491         0.673947         1.347168
 C         3.707242        -0.590697        -0.633332
 C         2.293258        -1.092698        -0.259957
 O         1.725453        -2.209862        -0.817060
 C         2.168207        -0.461372         1.104615
 H        -0.705532         1.067027         0.285168
 H        -0.190766         0.682324        -1.339712
 H        -0.592520        -0.787408        -0.285427
 H         2.651986         2.002362        -0.983654
 H         1.934666         2.132944         0.579627
 H         5.186748         1.183451         0.899180
 H         3.885490        -0.132716        -1.643322
 H         4.620754        -1.234787        -0.354108
 H         2.415641        -2.846651        -1.009318
 H         1.936680        -0.962151         2.064587
