19
Iteration:  2721charge 0 multiplicity 1
 C        -0.152315         0.179136        -0.323202
 C         1.398055         0.168798         0.028920
 C         2.392656         1.387089         0.011979
 C         3.441069         0.333281         0.473467
 O         4.492533         0.873484         1.317323
 C         3.676952        -0.558294        -0.759320
 C         2.308047        -1.025208        -0.380672
 O         1.678800        -2.267402        -0.744612
 C         2.298124        -0.558195         1.024111
 H        -0.738358         1.046877         0.188347
 H        -0.196024         0.296974        -1.412446
 H        -0.610652        -0.867884        -0.086675
 H         2.506095         1.921232        -0.939954
 H         2.182622         2.102693         0.921453
 H         4.515236         0.230625         2.120785
 H         3.810451         0.068363        -1.660518
 H         4.475104        -1.283489        -0.486402
 H         1.203743        -1.918238        -1.497020
 H         2.076812        -0.985188         1.909651
