19
Iteration:  1330charge 0 multiplicity 1
 C        -0.033596         0.354110        -0.294498
 C         1.396733         0.063736         0.012528
 C         2.293916         1.298888         0.185830
 C         3.428321         0.376331         0.482765
 O         4.440400         0.964360         1.205519
 C         3.666425        -0.547846        -0.785849
 C         2.292288        -1.070450        -0.463484
 O         1.734958        -2.279779        -0.725305
 C         2.293654        -0.667223         0.977807
 H        -0.133245         1.294868         0.284093
 H        -0.129133         0.648806        -1.345800
 H        -0.768928        -0.370302        -0.064822
 H         2.552410         2.024011        -0.752062
 H         1.973858         1.720129         1.174710
 H         4.568429         0.417179         2.031601
 H         3.932716         0.001918        -1.668255
 H         4.321145        -1.305880        -0.370741
 H         0.936504        -2.366791        -1.244015
 H         2.203447        -1.279293         2.006311
