19
Iteration:  2350
 C        -0.078172         0.187223        -0.245111
 C         1.434171         0.214459         0.021517
 C         2.377397         1.422113         0.039178
 C         3.470659         0.434141         0.530332
 O         4.500513         0.795491         1.366399
 C         3.699902        -0.587810        -0.706147
 C         2.225022        -1.063175        -0.470523
 O         1.606757        -2.316516        -0.793980
 C         2.259755        -0.580050         0.972077
 H        -0.441867         1.157977        -0.063763
 H        -0.335137         0.116700        -1.363262
 H        -0.512874        -0.651785         0.360090
 H         2.601482         2.042954        -0.849736
 H         1.908060         1.977880         0.804935
 H         4.374346         1.814724         1.239360
 H         3.951238        -0.046854        -1.655868
 H         4.524452        -1.317741        -0.394029
 H         1.937731        -2.691206        -1.639695
 H         1.922926        -0.968202         1.836887
