19
Iteration:  4458
 C        -0.079896         0.114427        -0.180373
 C         1.420567         0.211509        -0.005799
 C         2.356240         1.333484        -0.115603
 C         3.428556         0.451796         0.553345
 O         4.529217         0.894470         1.327350
 C         3.776743        -0.640752        -0.667149
 C         2.312435        -1.058215        -0.329036
 O         1.544653        -2.251866        -0.953702
 C         2.253144        -0.509655         1.068814
 H        -0.602346         0.943187         0.312127
 H        -0.340945         0.108086        -1.280489
 H        -0.493554        -0.884125         0.179903
 H         2.627194         1.736865        -1.133682
 H         2.100065         2.167664         0.619727
 H         4.274967         0.597271         2.152798
 H         4.117196        -0.111806        -1.525071
 H         4.441938        -1.429732        -0.253151
 H         1.315292        -1.980586        -1.876714
 H         2.078691        -0.828462         2.055491
