19
Iteration:   187
 C        -0.088058         0.090701        -0.084666
 C         1.389871         0.128603         0.055735
 C         2.343077         1.462387         0.035849
 C         3.355629         0.466438         0.583934
 O         4.587845         0.746913         1.214278
 C         3.664636        -0.586654        -0.712347
 C         2.206500        -0.948109        -0.469917
 O         1.756505        -2.193081        -0.964239
 C         2.250951        -0.623670         1.048629
 H        -0.422868         0.643346         0.783006
 H        -0.391122         0.424522        -1.058046
 H        -0.548868        -0.914986         0.035479
 H         2.615116         1.925285        -0.888598
 H         2.022417         2.122174         0.829634
 H         4.679519         1.689967         1.238776
 H         4.016324        -0.178972        -1.603847
 H         4.395050        -1.277892        -0.417738
 H         0.814810        -2.260473        -1.072463
 H         2.157912        -1.483398         1.781731
