19
Iteration:  4546
 C        -0.036223         0.397071        -0.264519
 C         1.387099         0.110975         0.039711
 C         2.260364         1.370246         0.055351
 C         3.376435         0.374502         0.522307
 O         4.541509         0.848608         1.187961
 C         3.624765        -0.631027        -0.631751
 C         2.289995        -1.128703        -0.363338
 O         1.818562        -2.354787        -0.916122
 C         2.219047        -0.550848         1.129617
 H        -0.505128         0.947483         0.578720
 H        -0.024412         1.112501        -1.135519
 H        -0.766264        -0.388138        -0.455776
 H         2.421827         1.876672        -0.948521
 H         1.832117         2.008481         0.917287
 H         4.215924         1.555776         1.754271
 H         3.823899        -0.189873        -1.563238
 H         4.451630        -1.262707        -0.412896
 H         1.690725        -2.231090        -1.879539
 H         1.961835        -1.221196         2.067738
