19
Iteration:   925
 C        -0.046520         0.173521         0.036809
 C         1.488597         0.128503         0.063473
 C         2.353951         1.355548         0.043755
 C         3.405069         0.367850         0.556775
 O         4.458563         1.053630         1.221232
 C         3.648147        -0.662814        -0.649858
 C         2.228509        -1.101958        -0.354171
 O         1.672456        -2.136572        -1.231722
 C         2.210895        -0.651791         1.071519
 H        -0.357785         0.824949         0.826892
 H        -0.372168         0.613224        -0.908798
 H        -0.622927        -0.778141         0.229767
 H         2.502759         1.904677        -0.892815
 H         1.983088         2.109852         0.650419
 H         5.045766         0.386945         1.621507
 H         3.967427        -0.385105        -1.693973
 H         4.416717        -1.395163        -0.374198
 H         2.475793        -2.691847        -1.437628
 H         1.707326        -1.127372         2.035310
