19
Iteration:   537
 C        -0.066351         0.108266        -0.101320
 C         1.452314         0.151701         0.053492
 C         2.412785         1.393175        -0.035650
 C         3.438799         0.401305         0.555186
 O         4.532052         0.822223         1.258339
 C         3.589958        -0.437208        -0.785704
 C         2.220370        -1.065493        -0.376468
 O         1.677546        -2.227122        -1.009210
 C         2.188914        -0.533876         1.102040
 H        -0.542749         1.014962         0.322137
 H        -0.369522         0.281465        -1.147736
 H        -0.445531        -0.798784         0.427815
 H         2.710548         1.702512        -1.027224
 H         2.076771         2.162374         0.709905
 H         4.638265         0.292727         2.060703
 H         3.733351         0.088529        -1.695125
 H         4.366483        -1.171315        -0.612143
 H         2.201012        -3.054921        -0.794907
 H         1.748030        -0.818796         1.942841
