19
Iteration:  1427
 C        -0.017520         0.245878        -0.045905
 C         1.419500         0.121149         0.007568
 C         2.443670         1.330548        -0.189173
 C         3.447385         0.364972         0.526492
 O         4.418937         0.949677         1.457249
 C         3.732280        -0.663635        -0.648220
 C         2.204182        -1.031657        -0.473226
 O         1.538703        -2.250474        -0.911364
 C         2.336616        -0.587278         0.930688
 H        -0.320333         0.577846         0.978592
 H        -0.421579         0.543511        -1.039556
 H        -0.350220        -0.880147         0.090355
 H         2.692168         1.750646        -1.117446
 H         2.186177         2.153177         0.518562
 H         4.236819         1.965319         1.619485
 H         4.016577        -0.172505        -1.617588
 H         4.267897        -1.580839        -0.345026
 H         1.875380        -2.327810        -1.799636
 H         2.008893        -1.148135         1.802755
