19
Iteration:  2932charge 0 multiplicity 1
 C        -0.125406         0.170669        -0.173175
 C         1.411177         0.176861        -0.006151
 C         2.411376         1.361554        -0.081410
 C         3.447206         0.379076         0.574493
 O         4.541632         0.977064         1.202682
 C         3.732074        -0.732258        -0.535236
 C         2.214909        -1.102100        -0.364638
 O         1.675192        -2.216666        -1.015451
 C         2.193446        -0.567180         1.100991
 H        -0.557412         0.962664         0.481525
 H        -0.387428         0.232952        -1.182506
 H        -0.591293        -0.705273         0.208762
 H         2.649207         1.811712        -1.009595
 H         2.326165         2.149187         0.740402
 H         4.408424         1.272034         2.070178
 H         4.053686        -0.265831        -1.421375
 H         4.318479        -1.561390        -0.188048
 H         1.243117        -1.678789        -1.699167
 H         1.967109        -1.195166         1.937716
