19
Iteration:  1309
 C        -0.059502         0.367075        -0.187762
 C         1.433510         0.124673         0.009224
 C         2.230032         1.415024         0.091142
 C         3.487717         0.376727         0.493280
 O         4.494166         1.044761         1.302384
 C         3.745678        -0.610364        -0.724703
 C         2.286896        -1.153924        -0.483217
 O         1.590251        -2.382578        -0.835023
 C         2.357774        -0.669621         0.955312
 H        -0.475212         1.195816         0.425675
 H        -0.303295         0.351857        -1.317849
 H        -0.505325        -0.546122         0.142523
 H         2.462959         2.050603        -0.896560
 H         2.004219         1.946878         1.024848
 H         4.349152         0.730222         2.215378
 H         3.919811        -0.151484        -1.704050
 H         4.385826        -1.430132        -0.373611
 H         1.158147        -2.224853        -1.697739
 H         2.184206        -1.283590         1.981523
