19
Iteration:  2509
 C        -0.077360         0.301378        -0.167984
 C         1.414171         0.143324         0.006789
 C         2.336224         1.376245         0.052289
 C         3.394860         0.369308         0.480781
 O         4.414579         0.890328         1.229337
 C         3.671262        -0.587987        -0.645064
 C         2.266270        -1.067008        -0.523172
 O         1.739653        -2.303571        -0.845758
 C         2.307304        -0.611858         1.050095
 H        -0.504884         1.150653         0.395902
 H        -0.251858         0.746724        -1.121771
 H        -0.691505        -0.599120        -0.079857
 H         2.613484         1.996779        -0.741219
 H         1.937125         2.029129         0.845301
 H         4.573303         0.624438         2.205293
 H         4.012450        -0.152426        -1.609087
 H         4.424040        -1.244819        -0.193972
 H         1.884057        -2.643945        -1.748111
 H         2.094350        -0.950533         1.980453
