19
Iteration:   511charge 0 multiplicity 1
 C        -0.111345         0.224414        -0.228551
 C         1.428648         0.091323         0.062008
 C         2.255032         1.343705         0.126610
 C         3.476381         0.378684         0.502632
 O         4.496681         1.027287         1.217100
 C         3.715336        -0.670184        -0.688029
 C         2.270511        -1.084542        -0.433308
 O         1.572870        -2.121390        -0.993347
 C         2.376753        -0.654873         1.057577
 H        -0.455170         1.155995         0.274118
 H        -0.292762         0.436912        -1.328084
 H        -0.739843        -0.619912         0.200459
 H         2.341249         1.973411        -0.816026
 H         2.042935         1.971169         1.087894
 H         4.868210         0.441571         1.886447
 H         3.893686        -0.247089        -1.711720
 H         4.591379        -1.392053        -0.314459
 H         1.790710        -2.997472        -0.570416
 H         2.219612        -1.317714         2.031449
