19
Iteration:   535
 C        -0.052410         0.129222        -0.112288
 C         1.444164         0.149032         0.061004
 C         2.423022         1.382717        -0.025432
 C         3.426705         0.410767         0.555528
 O         4.535818         0.847567         1.255740
 C         3.582756        -0.432492        -0.781640
 C         2.221578        -1.078835        -0.359467
 O         1.657348        -2.244031        -1.028993
 C         2.210245        -0.549920         1.089877
 H        -0.546718         1.017572         0.322934
 H        -0.318201         0.255179        -1.213012
 H        -0.460926        -0.816876         0.431291
 H         2.678899         1.759461        -1.018212
 H         2.026304         2.199262         0.747066
 H         4.664200         0.302367         2.105570
 H         3.757829         0.116651        -1.682044
 H         4.344138        -1.277067        -0.550806
 H         2.159391        -3.052664        -0.768562
 H         1.842920        -0.851077         1.976602
