19
Iteration:   625charge 0 multiplicity 1
 C        -0.037057         0.230128        -0.131747
 C         1.424080         0.083403         0.135410
 C         2.317378         1.249546         0.012368
 C         3.454967         0.301644         0.607163
 O         4.448351         1.108407         1.243769
 C         3.697959        -0.608337        -0.696524
 C         2.279608        -1.110169        -0.367003
 O         1.627193        -2.125639        -1.115567
 C         2.251814        -0.683584         1.087444
 H        -0.614025         0.798828         0.695149
 H        -0.025516         0.952865        -1.007946
 H        -0.669050        -0.656452        -0.395742
 H         2.538200         1.798030        -0.962068
 H         2.046047         2.066940         0.749531
 H         5.304304         0.653726         1.131826
 H         3.753516         0.091881        -1.565379
 H         4.458378        -1.442328        -0.933232
 H         1.538280        -2.952737        -0.560455
 H         2.103636        -1.149299         2.147443
