19
Iteration:  4352charge 0 multiplicity 1
 C        -0.136094         0.169829        -0.175150
 C         1.371350         0.264593        -0.055540
 C         2.507960         1.470388        -0.140577
 C         3.457599         0.431145         0.516753
 O         4.457111         0.726091         1.429168
 C         3.686391        -0.553378        -0.726597
 C         2.270993        -1.058113        -0.431649
 O         1.611062        -2.368880        -0.727270
 C         2.280605        -0.491614         0.965928
 H        -0.848599         0.549186         0.601075
 H        -0.575874         0.512156        -1.128006
 H        -0.365433        -0.827320        -0.179614
 H         2.935330         1.869998        -1.059062
 H         2.170294         2.323791         0.507749
 H         4.185213         1.532159         1.774471
 H         4.014514        -0.165175        -1.755027
 H         4.447297        -1.229594        -0.397873
 H         1.737482        -2.543010        -1.699030
 H         2.254081        -1.109038         1.797048
