19
Iteration:  2610
 C        -0.066611         0.156102        -0.170289
 C         1.395937         0.137523        -0.137273
 C         2.432280         1.331229        -0.072606
 C         3.448481         0.397602         0.522395
 O         4.385898         0.952657         1.333015
 C         3.765335        -0.655897        -0.515640
 C         2.289586        -1.098119        -0.388536
 O         1.592524        -2.148164        -0.958780
 C         2.294049        -0.651604         1.105201
 H        -0.518092         0.718654         0.691600
 H        -0.460854         0.564477        -1.120966
 H        -0.572851        -0.906009        -0.110172
 H         2.572807         1.814701        -0.963038
 H         2.187858         1.970157         0.830690
 H         4.981221         1.422980         0.772979
 H         4.039908        -0.153320        -1.456753
 H         4.482079        -1.506643        -0.224779
 H         1.047400        -1.589791        -1.588835
 H         2.186537        -1.181446         2.183860
