19
Iteration:  2725charge 0 multiplicity 1
 C        -0.103679         0.172674        -0.286318
 C         1.430557         0.195194         0.003990
 C         2.357368         1.372307         0.024277
 C         3.458209         0.360108         0.469231
 O         4.466368         0.873255         1.305803
 C         3.688158        -0.566034        -0.740829
 C         2.299940        -1.075176        -0.384365
 O         1.666051        -2.225265        -0.761422
 C         2.275260        -0.540850         1.033280
 H        -0.769500         0.931326         0.127000
 H        -0.084874         0.195290        -1.393689
 H        -0.611435        -0.739588        -0.133503
 H         2.496847         1.700720        -1.009424
 H         2.210732         1.976283         0.871759
 H         4.632652         0.302854         2.058356
 H         3.803241         0.077085        -1.601186
 H         4.418684        -1.263656        -0.436084
 H         1.109301        -1.944181        -1.553238
 H         2.121982        -1.189479         2.052799
