19
Iteration:  4740charge 0 multiplicity 1
 C        -0.100558        -0.013337        -0.298511
 C         1.341701         0.168927         0.020111
 C         2.365364         1.316033         0.005422
 C         3.400465         0.407778         0.594744
 O         4.552167         0.686119         1.306036
 C         3.657213        -0.547195        -0.717865
 C         2.327089        -0.999302        -0.365557
 O         1.690449        -2.066478        -0.843177
 C         2.238410        -0.491421         1.049094
 H        -0.624232         0.518639         0.481752
 H        -0.325935         0.412873        -1.299308
 H        -0.390432        -1.081121        -0.428430
 H         2.530808         1.733096        -1.032190
 H         2.165535         2.129014         0.799358
 H         4.512968         1.684311         1.603204
 H         3.787686        -0.015962        -1.714572
 H         4.558222        -1.194747        -0.491816
 H         1.376106        -1.879018        -1.741508
 H         2.086481        -0.896015         2.096395
