19
Iteration:  1033
 C        -0.112121         0.361673        -0.152305
 C         1.391813         0.212715         0.048326
 C         2.304583         1.414201         0.214741
 C         3.298682         0.375658         0.519907
 O         4.515691         0.880297         1.095964
 C         3.687509        -0.499844        -0.619748
 C         2.262307        -1.108784        -0.423633
 O         1.922135        -2.344790        -0.965700
 C         2.197240        -0.690920         0.970682
 H        -0.567542         0.943224         0.697286
 H        -0.358904         0.695696        -1.187487
 H        -0.693231        -0.668032        -0.121889
 H         2.392497         2.107808        -0.796827
 H         2.020214         1.944592         1.151186
 H         4.901774         0.125640         1.474397
 H         3.944728         0.027999        -1.581929
 H         4.469241        -1.207268        -0.237235
 H         0.948144        -2.534595        -1.001840
 H         1.900949        -1.348355         1.932951
