19
Iteration:  3016charge 0 multiplicity 1
 C        -0.134424         0.265139        -0.233402
 C         1.371284         0.224504        -0.049558
 C         2.338716         1.387562        -0.026499
 C         3.436873         0.393771         0.508475
 O         4.582553         0.682835         1.278341
 C         3.673677        -0.582013        -0.683790
 C         2.195141        -1.018762        -0.409049
 O         1.806144        -2.288119        -0.690096
 C         2.163754        -0.504403         0.954588
 H        -0.620792         0.802687         0.611844
 H        -0.440462         0.897923        -1.142119
 H        -0.523454        -0.775321        -0.329787
 H         2.498043         1.957738        -0.974204
 H         1.906232         2.087735         0.694522
 H         4.154786         1.184364         2.075092
 H         3.928182        -0.136547        -1.708954
 H         4.546900        -1.252559        -0.487069
 H         1.997988        -2.470462        -1.629165
 H         2.111451        -1.178739         1.873480
