19
Iteration:  2968charge 0 multiplicity 1
 C        -0.051795         0.239295        -0.092373
 C         1.415444         0.176208        -0.054928
 C         2.334168         1.460662        -0.169977
 C         3.394960         0.377235         0.498946
 O         4.468387         0.821887         1.347592
 C         3.765524        -0.580239        -0.626500
 C         2.312099        -1.074402        -0.434695
 O         1.664116        -2.319522        -0.807581
 C         2.250183        -0.524126         0.960582
 H        -0.458784         1.065646         0.500267
 H        -0.468155         0.495809        -1.101683
 H        -0.407302        -0.769323         0.217247
 H         2.449781         2.049762        -1.130785
 H         2.237142         2.132494         0.645115
 H         4.127228         0.599055         2.202868
 H         4.171546        -0.134692        -1.542249
 H         4.389033        -1.474314        -0.449929
 H         1.145848        -2.332506        -1.621403
 H         1.963961        -1.137565         1.788051
