19
Iteration:  2471
 C        -0.129130         0.141505        -0.128294
 C         1.439528         0.138396         0.035570
 C         2.471800         1.374245        -0.164168
 C         3.463512         0.410356         0.588120
 O         4.476926         1.029186         1.324681
 C         3.711822        -0.623793        -0.590649
 C         2.224607        -1.091140        -0.403367
 O         1.632536        -2.237418        -0.972987
 C         2.241242        -0.634965         1.010452
 H        -0.498482         0.324741         0.868086
 H        -0.410087         0.893067        -0.971915
 H        -0.588875        -0.827756        -0.417890
 H         2.738716         1.633184        -1.235528
 H         2.139336         2.192670         0.437109
 H         4.689292         0.355929         1.957097
 H         4.052166        -0.250361        -1.603737
 H         4.494748        -1.307252        -0.180026
 H         1.031518        -1.886161        -1.625824
 H         1.834367        -0.937332         2.092426
