19
Iteration:  2687charge 0 multiplicity 1
 C        -0.024741         0.280125        -0.235926
 C         1.360008         0.218214        -0.050294
 C         2.301154         1.421727        -0.027365
 C         3.382191         0.377963         0.525066
 O         4.546164         0.751208         1.259705
 C         3.656700        -0.485781        -0.683393
 C         2.275733        -1.067401        -0.446466
 O         1.785822        -2.366010        -0.683635
 C         2.195428        -0.535222         0.943089
 H        -0.463087         0.938884         0.639773
 H        -0.376861         0.696136        -1.212443
 H        -0.512426        -0.819072        -0.033405
 H         2.498638         2.144285        -0.851359
 H         1.883401         2.068049         0.904756
 H         4.261639         0.480801         2.240542
 H         3.954918        -0.086589        -1.683318
 H         4.497416        -1.257272        -0.471282
 H         1.731229        -2.345887        -1.672199
 H         1.775283        -1.073680         1.745463
