19
Iteration:  3264charge 0 multiplicity 1
 C        -0.110731         0.158163        -0.189560
 C         1.406579         0.184554         0.018244
 C         2.338129         1.403969        -0.173867
 C         3.397927         0.445873         0.478237
 O         4.595380         0.742309         1.262608
 C         3.733075        -0.657309        -0.475888
 C         2.263960        -1.036776        -0.357554
 O         1.722249        -2.229496        -0.935166
 C         2.171877        -0.483735         1.060020
 H        -0.639752         0.635292         0.621583
 H        -0.393374         0.750472        -1.067291
 H        -0.480983        -0.911771        -0.219210
 H         2.697447         1.700997        -1.106712
 H         2.062819         2.339065         0.415285
 H         4.310246         1.447547         1.964248
 H         4.018197        -0.432698        -1.572260
 H         4.424900        -1.398086        -0.054191
 H         0.832338        -2.125260        -1.325032
 H         1.998651        -0.963308         1.905710
