19
Iteration:  1893
 C        -0.041757         0.213813        -0.298186
 C         1.422086         0.217994         0.031578
 C         2.380468         1.360351        -0.062335
 C         3.426775         0.331072         0.552825
 O         4.537088         0.832636         1.347173
 C         3.697834        -0.601689        -0.665685
 C         2.197173        -1.040182        -0.425374
 O         1.667609        -2.256548        -0.911032
 C         2.301304        -0.565455         1.029829
 H        -0.544944         1.159400         0.126010
 H        -0.291141         0.052265        -1.320753
 H        -0.735898        -0.425813         0.195243
 H         2.496040         1.887206        -1.175553
 H         2.122866         2.186186         0.687385
 H         4.199785         0.939994         2.202469
 H         3.860290        -0.072588        -1.659366
 H         4.494946        -1.341809        -0.339635
 H         0.755152        -2.270554        -0.547380
 H         2.084564        -0.898692         2.015542
