19
Iteration:  2864charge 0 multiplicity 1
 C        -0.086141         0.153667        -0.266533
 C         1.410052         0.256646         0.029449
 C         2.379903         1.433956         0.022156
 C         3.431196         0.477391         0.516668
 O         4.446748         0.729929         1.394733
 C         3.713673        -0.592591        -0.766553
 C         2.217086        -1.023734        -0.501325
 O         1.699973        -2.330356        -0.671404
 C         2.261916        -0.552799         0.904257
 H        -0.483202         0.741825         0.541079
 H        -0.069269         0.725508        -1.132119
 H        -0.605225        -0.797350        -0.394298
 H         2.624686         1.992215        -0.828404
 H         1.975913         2.058064         0.906118
 H         4.813500         1.638658         1.056237
 H         3.931742        -0.008632        -1.620192
 H         4.423714        -1.354215        -0.508817
 H         1.322947        -2.473808        -1.547365
 H         2.096788        -1.324494         1.828628
