19
Iteration:  3674
 C        -0.017387         0.127012        -0.187171
 C         1.456977         0.180153        -0.009014
 C         2.424521         1.460682        -0.111980
 C         3.443415         0.449182         0.548656
 O         4.506307         0.888962         1.382824
 C         3.675757        -0.735487        -0.642985
 C         2.209874        -1.114870        -0.433305
 O         1.595599        -2.218500        -0.954428
 C         2.260232        -0.513160         1.006950
 H        -0.561190         0.572990         0.712725
 H        -0.329268         0.638328        -1.192888
 H        -0.424106        -0.934205        -0.248400
 H         2.818477         1.743736        -1.130886
 H         2.209530         2.307008         0.455280
 H         4.157691         1.690299         1.903868
 H         4.011092        -0.490304        -1.657605
 H         4.317003        -1.499928        -0.188754
 H         0.855712        -2.517598        -0.382157
 H         2.190107        -1.049272         1.934446
