19
Iteration:  4098charge 0 multiplicity 1
 C        -0.115462         0.194352        -0.277260
 C         1.345060         0.188364        -0.153495
 C         2.346538         1.373761        -0.114030
 C         3.438809         0.347499         0.515658
 O         4.540185         0.784547         1.411495
 C         3.665850        -0.648041        -0.597337
 C         2.264712        -1.078097        -0.302562
 O         1.764231        -2.185770        -0.922789
 C         2.211776        -0.372118         1.070701
 H        -0.523142         1.094561         0.242951
 H        -0.529687         0.205535        -1.329501
 H        -0.586905        -0.720108         0.283576
 H         2.775333         1.876051        -1.025645
 H         1.681293         2.131137         0.496913
 H         5.358617         0.190080         1.142124
 H         3.806571        -0.139105        -1.528417
 H         4.424336        -1.313546        -0.296044
 H         1.166815        -2.701384        -0.337283
 H         1.985744        -0.838030         1.950881
