19
Iteration:   294
 C        -0.021004         0.013865        -0.040544
 C         1.455799         0.211334        -0.126471
 C         2.379323         1.494444         0.027666
 C         3.461700         0.447272         0.458370
 O         4.456444         0.729976         1.394079
 C         3.640050        -0.538743        -0.748159
 C         2.230723        -1.020722        -0.451606
 O         1.537250        -2.253871        -0.925261
 C         2.335257        -0.530420         1.022172
 H        -0.407850         0.746324         0.725367
 H        -0.508465         0.369207        -1.037141
 H        -0.450711        -1.026421         0.193586
 H         2.480105         2.348460        -0.709552
 H         1.903355         2.051864         0.950827
 H         5.161516         1.297648         1.059071
 H         3.913976         0.064524        -1.772054
 H         4.357755        -1.328268        -0.408964
 H         2.319471        -2.765333        -1.089834
 H         1.854476        -0.875343         2.006862
