19
Iteration:   618charge 0 multiplicity 1
 C        -0.077872         0.200272        -0.107115
 C         1.421714         0.082152         0.049770
 C         2.406164         1.215803         0.017249
 C         3.471184         0.360292         0.594078
 O         4.392318         1.085501         1.252603
 C         3.676838        -0.610221        -0.725542
 C         2.277704        -1.114183        -0.405424
 O         1.645123        -2.078540        -1.055777
 C         2.263876        -0.687629         1.106542
 H        -0.388627         0.703613         0.795992
 H        -0.151973         0.839100        -0.962963
 H        -0.745766        -0.553754        -0.391570
 H         2.719609         1.775779        -0.895470
 H         2.250547         1.968709         0.721685
 H         5.176749         0.583787         1.284504
 H         3.616024         0.021287        -1.627666
 H         4.431736        -1.275904        -0.937549
 H         1.592112        -2.879839        -0.491845
 H         1.932129        -1.212983         2.115497
