19
Iteration:  3680
 C        -0.000958         0.079282        -0.221370
 C         1.426536         0.194948        -0.059649
 C         2.428335         1.391624        -0.079150
 C         3.450859         0.419700         0.516232
 O         4.508754         0.884428         1.347046
 C         3.725989        -0.715486        -0.651392
 C         2.172460        -1.066093        -0.356270
 O         1.576522        -2.180859        -0.966864
 C         2.273204        -0.496413         1.037442
 H        -0.512853         0.575186         0.578155
 H        -0.254405         0.669337        -1.051645
 H        -0.419594        -0.935933        -0.076084
 H         3.021944         1.767312        -0.960652
 H         1.946956         2.243469         0.561988
 H         4.212559         1.710152         1.850771
 H         4.068374        -0.419291        -1.663014
 H         4.311337        -1.473145        -0.092179
 H         0.953776        -2.637929        -0.353224
 H         1.906442        -1.016111         2.001769
