19
Iteration:  2645charge 0 multiplicity 1
 C        -0.130310         0.251426        -0.136617
 C         1.432836         0.175397         0.002199
 C         2.365438         1.321007        -0.123246
 C         3.453409         0.428464         0.483749
 O         4.515408         0.872103         1.378852
 C         3.672764        -0.664646        -0.592052
 C         2.210749        -1.016309        -0.407225
 O         1.756894        -2.324988        -0.935142
 C         2.194617        -0.582606         1.041156
 H        -0.551501         0.766979         0.742076
 H        -0.391362         0.886271        -0.938315
 H        -0.530219        -0.766569        -0.287338
 H         2.476517         1.847667        -1.009976
 H         2.140538         2.080995         0.629643
 H         4.595381         1.833712         1.476134
 H         4.035316        -0.189907        -1.489337
 H         4.257694        -1.545171        -0.349554
 H         1.588064        -2.255881        -1.925786
 H         1.945180        -0.944801         1.961370
