19
Iteration:  3735charge 0 multiplicity 1
 C        -0.063985         0.328717        -0.368365
 C         1.337676         0.152571         0.056199
 C         2.299861         1.353220        -0.044704
 C         3.413893         0.386092         0.508842
 O         4.645513         0.815878         1.218381
 C         3.579917        -0.648760        -0.522475
 C         2.168758        -1.059692        -0.374500
 O         1.725675        -2.282486        -0.859741
 C         2.254628        -0.532849         1.090811
 H        -0.455472         1.222769         0.057652
 H        -0.266151         0.307005        -1.402980
 H        -0.614619        -0.603026        -0.038353
 H         2.607555         1.892721        -0.937905
 H         2.091695         2.129696         0.783165
 H         4.418271         1.341283         2.077582
 H         3.915955        -0.154890        -1.491181
 H         4.376555        -1.406280        -0.387506
 H         2.342350        -2.597562        -1.557622
 H         2.067373        -0.993810         2.128824
