19
Iteration:  3787
 C        -0.062531         0.281795        -0.198433
 C         1.431508         0.126743        -0.143989
 C         2.338911         1.405622        -0.073169
 C         3.396460         0.408269         0.596188
 O         4.527901         0.800429         1.357136
 C         3.729995        -0.628924        -0.695649
 C         2.272296        -1.059273        -0.524607
 O         1.680438        -2.345509        -0.746909
 C         2.247183        -0.466069         0.981950
 H        -0.486485         1.123713         0.507572
 H        -0.371436         0.379870        -1.290248
 H        -0.522127        -0.730052        -0.008258
 H         2.731145         1.838605        -0.973129
 H         1.941901         2.164785         0.638647
 H         4.472461         1.537679         2.068797
 H         4.275363        -0.225635        -1.613471
 H         4.195394        -1.574294        -0.204309
 H         0.744908        -2.229358        -1.034924
 H         1.760930        -0.960688         1.955804
