19
Iteration:   269charge 0 multiplicity 1
 C        -0.129326         0.172526         0.015348
 C         1.361796         0.165768         0.022570
 C         2.300857         1.314349        -0.037661
 C         3.440418         0.387974         0.466192
 O         4.398617         0.750753         1.442818
 C         3.762793        -0.519123        -0.846549
 C         2.384965        -1.043007        -0.453561
 O         1.617951        -2.141294        -0.925843
 C         2.322848        -0.580763         0.956545
 H        -0.510749         0.875763         0.805386
 H        -0.396988         0.794109        -0.908028
 H        -0.681297        -0.745905         0.006190
 H         2.421568         1.686735        -1.068961
 H         2.050903         2.200412         0.526757
 H         5.073868         1.353110         1.014649
 H         3.917086         0.039008        -1.821953
 H         4.618327        -1.202680        -0.534183
 H         1.939351        -2.904992        -0.402422
 H         2.275284        -1.193044         1.757298
