19
Iteration:   526charge 0 multiplicity 1
 C        -0.027200         0.201494        -0.154299
 C         1.399922         0.162174         0.056432
 C         2.384566         1.378093         0.024912
 C         3.406102         0.414782         0.550252
 O         4.549301         0.939187         1.253436
 C         3.586350        -0.500772        -0.700754
 C         2.229938        -1.120950        -0.365313
 O         1.594486        -2.261004        -1.069961
 C         2.325032        -0.615663         1.067371
 H        -0.524625         1.039836         0.344564
 H        -0.196545         0.069361        -1.223382
 H        -0.517715        -0.726953         0.210747
 H         2.563330         1.944865        -0.874071
 H         2.006736         2.135198         0.742545
 H         4.697914         0.370320         2.076166
 H         3.754924         0.013520        -1.612436
 H         4.323691        -1.273674        -0.567622
 H         2.031826        -3.029690        -0.644756
 H         2.212378        -0.986558         1.977987
