19
Iteration:  1939
 C        -0.071179         0.309593        -0.083459
 C         1.435551         0.275915        -0.103950
 C         2.441835         1.469092        -0.090831
 C         3.368452         0.363942         0.519134
 O         4.448300         0.683401         1.333013
 C         3.725080        -0.568691        -0.592640
 C         2.182846        -1.116862        -0.479758
 O         1.862695        -2.379416        -0.910328
 C         2.146461        -0.504738         0.975627
 H        -0.595239         1.280971         0.165257
 H        -0.507757        -0.081196        -0.968635
 H        -0.579399        -0.328896         0.692319
 H         2.753222         1.959607        -1.140567
 H         2.082212         2.162856         0.705333
 H         4.348365         1.541384         1.782892
 H         4.189496         0.059823        -1.432948
 H         4.230331        -1.487849        -0.379311
 H         0.946188        -2.493675        -0.688529
 H         1.731976        -0.800207         1.882513
