19
Iteration:  2013charge 0 multiplicity 1
 C        -0.012931         0.180653        -0.378133
 C         1.470819         0.195960        -0.047593
 C         2.364212         1.342081        -0.015535
 C         3.492412         0.338172         0.563895
 O         4.562958         0.947183         1.294719
 C         3.699426        -0.681086        -0.564048
 C         2.177789        -1.108684        -0.329106
 O         1.581512        -2.178226        -0.885921
 C         2.278238        -0.630400         1.082701
 H        -0.698963         0.560054         0.459283
 H        -0.119723         0.830718        -1.259082
 H        -0.567854        -0.685062        -0.628003
 H         2.664743         1.852752        -0.904593
 H         1.976257         2.146316         0.642603
 H         4.099364         1.698727         1.804779
 H         3.929356        -0.437711        -1.626758
 H         4.423018        -1.484408        -0.353921
 H         0.702172        -1.861429        -1.204263
 H         1.963511        -1.138776         1.906121
