19
Iteration:  1698charge 0 multiplicity 1
 C         0.025830         0.215811        -0.324564
 C         1.406057         0.097951         0.022163
 C         2.317143         1.310362         0.021639
 C         3.434166         0.375222         0.517999
 O         4.513225         0.900995         1.211955
 C         3.704951        -0.656102        -0.537661
 C         2.239239        -1.023620        -0.313440
 O         1.632302        -2.124160        -0.961832
 C         2.267293        -0.563511         1.096456
 H        -0.683638         1.052022         0.081247
 H        -0.222551         0.388079        -1.404695
 H        -0.293527        -0.846903        -0.047969
 H         2.598238         1.645483        -0.992126
 H         1.938204         2.005484         0.845291
 H         4.776614         0.283220         1.851511
 H         3.935186        -0.117111        -1.515590
 H         4.477966        -1.431660        -0.231981
 H         0.751673        -1.927492        -1.342851
 H         1.974062        -1.117981         2.081408
