19
Iteration:  1663
 C        -0.050747         0.206626        -0.294411
 C         1.406068         0.215170        -0.031295
 C         2.458791         1.369708         0.061602
 C         3.526941         0.420117         0.510770
 O         4.526060         0.921505         1.371105
 C         3.704704        -0.617662        -0.665524
 C         2.215095        -1.118181        -0.432097
 O         1.560128        -2.314622        -0.902547
 C         2.267840        -0.596575         1.007103
 H        -0.733460         0.839925         0.459446
 H        -0.185170         0.440598        -1.385381
 H        -0.527099        -0.781629        -0.189042
 H         2.751324         1.993768        -0.829005
 H         2.139286         2.101799         0.734580
 H         4.019846         1.176739         2.105969
 H         3.907771        -0.092980        -1.650865
 H         4.536565        -1.340987        -0.513383
 H         0.607091        -2.116246        -0.874149
 H         2.081075        -1.056862         1.888713
