19
Iteration:  1032charge 0 multiplicity 1
 C        -0.112740         0.355879        -0.160845
 C         1.384879         0.221331         0.047477
 C         2.298819         1.429158         0.215660
 C         3.302838         0.372068         0.516406
 O         4.518507         0.871497         1.092686
 C         3.687627        -0.490193        -0.622202
 C         2.272114        -1.125269        -0.416390
 O         1.923301        -2.339481        -0.966075
 C         2.195187        -0.688781         0.973200
 H        -0.573050         0.953981         0.701459
 H        -0.380392         0.709631        -1.184531
 H        -0.680569        -0.685511        -0.121559
 H         2.405629         2.080620        -0.765937
 H         2.019563         1.971866         1.173805
 H         4.900195         0.107191         1.485414
 H         3.918864         0.028328        -1.586126
 H         4.446373        -1.216168        -0.232192
 H         0.947371        -2.562174        -0.984444
 H         1.906037        -1.358800         1.956270
