19
Iteration:  4903
 C        -0.077230        -0.044877        -0.304992
 C         1.401319         0.158952        -0.024044
 C         2.324222         1.505556        -0.055110
 C         3.430065         0.407559         0.535916
 O         4.533949         0.657933         1.413237
 C         3.707825        -0.474253        -0.712061
 C         2.294947        -1.020580        -0.411934
 O         1.545258        -2.128156        -0.818820
 C         2.329423        -0.508512         1.082154
 H        -0.800947         0.599626         0.209967
 H        -0.185160        -0.013660        -1.402855
 H        -0.282872        -1.112706        -0.074959
 H         2.558877         2.011405        -0.937014
 H         1.894950         2.145344         0.752789
 H         4.514127         1.555780         1.592829
 H         4.146281        -0.146789        -1.692634
 H         4.402903        -1.346259        -0.317647
 H         1.537879        -1.982309        -1.797065
 H         2.329549        -1.045958         1.966426
