19
Iteration:  2144charge 0 multiplicity 1
 C        -0.109400         0.164950        -0.204998
 C         1.458257         0.173300        -0.101157
 C         2.403027         1.374699        -0.062305
 C         3.432667         0.304905         0.520733
 O         4.460883         0.951458         1.359145
 C         3.841854        -0.733277        -0.573753
 C         2.289849        -1.173013        -0.362046
 O         1.510584        -2.038693        -0.970111
 C         2.260833        -0.611429         0.979473
 H        -0.621420         1.229905         0.121723
 H        -0.430942         0.030131        -1.341061
 H        -0.612644        -0.717634         0.249704
 H         2.839879         1.732365        -0.952499
 H         2.269898         2.063616         0.852063
 H         4.355498         1.945168         1.546855
 H         4.183824        -0.363098        -1.549600
 H         4.526136        -1.312228         0.011539
 H         1.421171        -2.849734        -0.481449
 H         1.910172        -0.932761         2.077672
