19
Iteration:   355charge 0 multiplicity 1
 C        -0.039820         0.227200        -0.143088
 C         1.408113         0.089188         0.204121
 C         2.261051         1.308990        -0.012672
 C         3.385357         0.395222         0.534158
 O         4.515454         0.893280         1.286311
 C         3.714915        -0.582711        -0.697839
 C         2.221791        -1.064820        -0.438632
 O         1.608293        -2.128274        -1.089339
 C         2.334070        -0.637451         1.153005
 H        -0.446017         1.190357         0.176055
 H        -0.142645         0.460207        -1.175118
 H        -0.589330        -0.629697         0.107318
 H         2.245181         1.705782        -1.020388
 H         1.870199         1.917891         0.721723
 H         5.182530         1.230413         0.711717
 H         4.068594        -0.137986        -1.552385
 H         4.446506        -1.326317        -0.381901
 H         1.821504        -3.033284        -0.906222
 H         2.442703        -1.012225         2.099376
