19
Iteration:  1771charge 0 multiplicity 1
 C        -0.069972         0.363027        -0.052843
 C         1.444304         0.251712        -0.095965
 C         2.390546         1.459227        -0.135647
 C         3.392276         0.446614         0.511902
 O         4.362209         0.694112         1.456105
 C         3.757807        -0.626874        -0.778514
 C         2.367779        -1.112508        -0.466539
 O         1.621994        -2.326900        -0.763498
 C         2.266388        -0.602948         0.895045
 H        -0.448798         0.992572         0.815482
 H        -0.570915         0.626234        -1.014616
 H        -0.416940        -0.631017         0.062904
 H         2.615673         1.957084        -1.110157
 H         2.040196         2.061620         0.653930
 H         4.377177         1.610178         1.701036
 H         4.021406        -0.203869        -1.765939
 H         4.483860        -1.156000        -0.134971
 H         1.878496        -2.752603        -1.574125
 H         1.992414        -1.099182         1.878059
