19
Iteration:  1613
 C        -0.168714         0.414249        -0.106409
 C         1.304797         0.258633        -0.083076
 C         2.287834         1.420453        -0.152313
 C         3.381452         0.415218         0.580087
 O         4.584816         0.643516         1.323040
 C         3.684779        -0.611195        -0.562378
 C         2.244859        -1.209210        -0.395467
 O         1.909103        -2.388257        -0.957225
 C         2.183480        -0.448837         1.020547
 H        -0.477537         0.948571         0.716060
 H        -0.621372         0.628024        -1.053912
 H        -0.546008        -0.621162         0.107051
 H         2.491011         1.987203        -1.051315
 H         2.147225         2.203890         0.703551
 H         4.525160         1.633080         1.567801
 H         4.020440        -0.077467        -1.465806
 H         4.341038        -1.371679        -0.130349
 H         1.584385        -2.111240        -1.817878
 H         1.932104        -0.764727         2.076615
