19
Iteration:   408
 C        -0.134480         0.140098        -0.024064
 C         1.385830         0.222334        -0.038069
 C         2.329146         1.411085        -0.043122
 C         3.461698         0.435005         0.503826
 O         4.489391         0.771195         1.412226
 C         3.697186        -0.499575        -0.677618
 C         2.236255        -0.988062        -0.578891
 O         1.658524        -2.299686        -0.873959
 C         2.283844        -0.529790         0.893382
 H        -0.465420         0.561224         0.962860
 H        -0.601554         0.747635        -0.790024
 H        -0.477576        -0.884904        -0.122663
 H         2.496908         1.922414        -1.048664
 H         2.095781         2.157787         0.691284
 H         5.362059         0.543960         1.106047
 H         4.073849         0.015578        -1.665629
 H         4.293324        -1.401219        -0.359236
 H         2.132356        -2.968796        -0.390717
 H         1.915658        -1.097260         1.695410
