19
Iteration:  3464
 C        -0.033553         0.510362        -0.140876
 C         1.403732         0.118786        -0.090827
 C         2.295580         1.326723        -0.088871
 C         3.418361         0.370322         0.496903
 O         4.481644         0.783966         1.289832
 C         3.612142        -0.635277        -0.688599
 C         2.274097        -1.115285        -0.327013
 O         1.915411        -2.356525        -0.870557
 C         2.129994        -0.529616         1.045943
 H        -0.226533         0.897479         0.781298
 H        -0.472390         0.950917        -1.025879
 H        -0.535335        -0.451245        -0.074181
 H         2.573531         1.834691        -1.089190
 H         2.010566         2.113119         0.760325
 H         4.282082         1.536040         1.771872
 H         3.931035        -0.030764        -1.538500
 H         4.375419        -1.387164        -0.397191
 H         1.003044        -2.443668        -1.162272
 H         1.825449        -0.994707         1.900991
