19
Iteration:  2112charge 0 multiplicity 1
 C        -0.006290         0.318064        -0.148652
 C         1.446387         0.147819        -0.036124
 C         2.358374         1.330320        -0.141153
 C         3.387790         0.369170         0.605289
 O         4.509689         0.896341         1.295673
 C         3.664302        -0.698876        -0.557210
 C         2.194548        -1.086110        -0.460892
 O         1.704300        -2.237320        -1.011272
 C         2.194832        -0.535450         1.050105
 H        -0.415338         1.348943         0.341358
 H        -0.278755         0.504555        -1.244518
 H        -0.646065        -0.485018         0.228144
 H         2.745081         1.672321        -1.069443
 H         2.212243         2.248409         0.497945
 H         4.087367         1.254938         2.110431
 H         4.142328        -0.328367        -1.515220
 H         4.365977        -1.414049        -0.165671
 H         1.976116        -2.949890        -0.364351
 H         1.820408        -1.107034         2.001864
