19
Iteration:  3664
 C        -0.074031         0.206049        -0.146552
 C         1.434057         0.232012         0.000107
 C         2.442293         1.433258        -0.179283
 C         3.436626         0.403981         0.518708
 O         4.479461         0.865673         1.394884
 C         3.674086        -0.704912        -0.609714
 C         2.288609        -1.077712        -0.434847
 O         1.639833        -2.290015        -0.943176
 C         2.288927        -0.572010         0.999491
 H        -0.676157         0.681388         0.694983
 H        -0.428978         0.737633        -1.121685
 H        -0.350690        -0.820324        -0.331947
 H         2.335513         1.781851        -1.192784
 H         2.293016         2.266041         0.450261
 H         4.050522         1.635531         1.977104
 H         3.988078        -0.351157        -1.616526
 H         4.348042        -1.497918        -0.313245
 H         0.799019        -2.287777        -0.401012
 H         2.167668        -0.979601         1.967375
