19
Iteration:  3095charge 0 multiplicity 1
 C        -0.022522         0.181240        -0.229279
 C         1.452987         0.214222         0.059767
 C         2.435720         1.300602        -0.130840
 C         3.431279         0.381991         0.575673
 O         4.452295         0.899515         1.270068
 C         3.746042        -0.636645        -0.564499
 C         2.283207        -1.110494        -0.383624
 O         1.548390        -2.222467        -0.948245
 C         2.280441        -0.554435         1.064830
 H        -0.638936         0.994964         0.328579
 H        -0.250511         0.240024        -1.290770
 H        -0.461301        -0.711828         0.133411
 H         2.500545         1.573393        -1.155625
 H         2.256663         2.203660         0.551041
 H         4.009269         1.703067         1.777505
 H         4.152357        -0.283003        -1.535168
 H         4.295453        -1.437837        -0.024422
 H         0.808668        -1.857781        -1.456785
 H         2.347293        -1.150260         1.937534
