19
Iteration:  3869charge 0 multiplicity 1
 C        -0.190949         0.302294        -0.278644
 C         1.382986         0.149627        -0.070080
 C         2.376225         1.320356        -0.017191
 C         3.456636         0.368578         0.594753
 O         4.544312         0.880908         1.153507
 C         3.747635        -0.671323        -0.474015
 C         2.287514        -1.110728        -0.402416
 O         1.719088        -2.223472        -0.899375
 C         2.208722        -0.608910         1.089709
 H        -0.602344         1.080013         0.331072
 H        -0.410510         0.626556        -1.290429
 H        -0.732277        -0.630258         0.100968
 H         2.707226         1.795021        -0.978526
 H         2.146658         2.176665         0.669538
 H         4.367869         1.690329         1.756979
 H         4.155527        -0.399544        -1.536453
 H         4.417268        -1.361156         0.057121
 H         0.937959        -2.084130        -1.466292
 H         1.894199        -0.990978         2.098941
