19
Iteration:  1349
 C        -0.140971         0.301538        -0.316059
 C         1.336768         0.198595         0.034006
 C         2.337366         1.342548         0.050670
 C         3.418921         0.370028         0.589538
 O         4.517581         0.849145         1.211613
 C         3.656883        -0.495586        -0.745446
 C         2.265150        -1.035898        -0.347588
 O         1.803266        -2.329548        -0.778906
 C         2.285265        -0.613334         1.069878
 H        -0.678577         1.120853         0.155856
 H        -0.215381         0.655297        -1.316897
 H        -0.603498        -0.729614        -0.275869
 H         2.401098         1.792008        -0.907955
 H         2.009913         1.968757         0.918107
 H         5.111261         0.158256         1.524506
 H         3.627034         0.149443        -1.642022
 H         4.501039        -1.212134        -0.725569
 H         1.083757        -2.196285        -1.435636
 H         2.036481        -1.405364         1.890232
