19
Iteration:  4187charge 0 multiplicity 1
 C        -0.052330         0.224180        -0.275862
 C         1.418372         0.299530         0.025685
 C         2.443868         1.457379        -0.147172
 C         3.367387         0.390503         0.493166
 O         4.421672         0.839506         1.301511
 C         3.757528        -0.671720        -0.608701
 C         2.219044        -1.141440        -0.353533
 O         1.674020        -2.258426        -0.854539
 C         2.108876        -0.487184         1.085281
 H        -0.624887         0.535292         0.635693
 H        -0.218421         0.880849        -1.175743
 H        -0.399754        -0.757780        -0.564905
 H         2.768217         1.790526        -1.159118
 H         2.107487         2.278968         0.598399
 H         5.092838         0.079394         1.519994
 H         3.994543        -0.186489        -1.536199
 H         4.521725        -1.346587        -0.398749
 H         2.276785        -3.017156        -0.734884
 H         2.096893        -0.971758         2.157726
