19
Iteration:  4856charge 0 multiplicity 1
 C        -0.132765         0.246103        -0.150718
 C         1.392990         0.158247        -0.118296
 C         2.332564         1.308572         0.020820
 C         3.375841         0.389030         0.567081
 O         4.466767         0.846361         1.274333
 C         3.732691        -0.611884        -0.650555
 C         2.260340        -1.037786        -0.426668
 O         1.843994        -2.199729        -0.937367
 C         2.232825        -0.612882         1.061387
 H        -0.239033         1.134854         0.445094
 H        -0.593893         0.380876        -1.117403
 H        -0.666311        -0.608679         0.352340
 H         2.664122         1.751154        -0.925411
 H         1.949616         1.999529         0.756279
 H         4.418965         0.989133         2.268203
 H         4.059232        -0.272676        -1.741155
 H         4.420676        -1.430266        -0.296035
 H         1.248935        -1.984424        -1.682836
 H         1.752633        -0.952048         2.026136
