19
Iteration:  1927charge 0 multiplicity 1
 C        -0.104375         0.286929        -0.105976
 C         1.400731         0.242960        -0.133909
 C         2.374699         1.428472        -0.107062
 C         3.369501         0.370705         0.518634
 O         4.409040         0.643355         1.374091
 C         3.760038        -0.586542        -0.665530
 C         2.345043        -1.051792        -0.454468
 O         1.784929        -2.326530        -0.845894
 C         2.195080        -0.525085         0.942598
 H        -0.306736         1.395971         0.065110
 H        -0.581805         0.031682        -1.009205
 H        -0.370895        -0.307088         0.740909
 H         2.731145         2.181473        -0.952871
 H         2.150761         2.111708         0.766403
 H         4.201085         1.434009         1.845122
 H         3.953473        -0.194085        -1.721514
 H         4.608553        -1.212182        -0.339442
 H         0.837932        -2.371487        -0.543534
 H         1.902810        -0.715004         1.877979
