19
Iteration:  4805charge 0 multiplicity 1
 C        -0.137211         0.379492        -0.069720
 C         1.405634         0.164033        -0.076442
 C         2.382896         1.271466        -0.027206
 C         3.376506         0.277432         0.569403
 O         4.406356         0.912621         1.333878
 C         3.653891        -0.572629        -0.658134
 C         2.284495        -1.116761        -0.469799
 O         1.857115        -2.249996        -0.885822
 C         2.264943        -0.696723         0.965899
 H        -0.462982         0.875185         0.858338
 H        -0.140654         1.185545        -0.849981
 H        -0.864990        -0.421878        -0.408449
 H         2.589392         1.871088        -0.920615
 H         2.038563         1.820750         0.925386
 H         4.213042         1.795282         1.422517
 H         3.915459         0.018109        -1.419120
 H         4.373880        -1.394823        -0.447270
 H         1.720986        -2.264895        -1.863675
 H         1.945959        -1.144877         1.847486
