19
Iteration:   163
 C        -0.152189         0.099643        -0.106398
 C         1.376177         0.175593         0.129560
 C         2.357197         1.309505         0.026830
 C         3.457650         0.397036         0.522895
 O         4.568530         0.772378         1.304596
 C         3.657177        -0.487351        -0.833498
 C         2.294732        -1.028096        -0.409423
 O         1.636236        -2.175374        -0.899442
 C         2.378393        -0.570706         0.987392
 H        -0.768876         0.719766         0.540648
 H        -0.320463         0.050950        -1.198585
 H        -0.471443        -0.920670         0.180572
 H         2.455074         1.625262        -1.009849
 H         2.124559         2.151590         0.776626
 H         3.944565         1.364967         1.855301
 H         3.884680        -0.004061        -1.765169
 H         4.348223        -1.286536        -0.773514
 H         1.236730        -1.784370        -1.715090
 H         2.183221        -0.791652         1.941386
