19
Iteration:   145charge 0 multiplicity 1
 C        -0.016272         0.074510        -0.066953
 C         1.468606         0.122654         0.011584
 C         2.318842         1.437727         0.012423
 C         3.448460         0.397354         0.467198
 O         4.491571         0.851863         1.268973
 C         3.635879        -0.523403        -0.775412
 C         2.279292        -1.075540        -0.393926
 O         1.547935        -2.149182        -0.917038
 C         2.356832        -0.614244         1.065257
 H        -0.344857         1.016482         0.415519
 H        -0.353571         0.192951        -1.087921
 H        -0.553976        -0.793117         0.362987
 H         2.459624         2.083488        -0.867771
 H         2.033769         1.979571         0.860166
 H         4.260175         0.718388         2.253053
 H         3.612507        -0.042696        -1.777446
 H         4.536256        -1.180853        -0.728621
 H         1.822992        -2.286156        -1.845230
 H         2.306852        -1.327910         2.058844
