19
Iteration:  2717
 C        -0.183269         0.178014        -0.343406
 C         1.363029         0.156577         0.044418
 C         2.411104         1.400192         0.013614
 C         3.434573         0.339446         0.493529
 O         4.511509         0.861444         1.329600
 C         3.674663        -0.546001        -0.766837
 C         2.296681        -1.005458        -0.378891
 O         1.694059        -2.293058        -0.731323
 C         2.320084        -0.566797         1.000434
 H        -0.606881         0.993296         0.177302
 H        -0.324162         0.411245        -1.430781
 H        -0.559889        -0.794325        -0.053685
 H         2.547849         2.127814        -0.874591
 H         2.177781         2.107883         0.790458
 H         4.432608         0.279301         2.045713
 H         3.852228        -0.027288        -1.732717
 H         4.501211        -1.299629        -0.599607
 H         1.205550        -1.997297        -1.545552
 H         2.000116        -0.940605         2.022914
