19
Iteration:  3246charge 0 multiplicity 1
 C        -0.134529         0.107856        -0.241014
 C         1.435853         0.173169        -0.142682
 C         2.397245         1.360207        -0.090434
 C         3.467108         0.346831         0.622540
 O         4.585693         0.861040         1.233901
 C         3.704022        -0.673785        -0.549396
 C         2.227400        -1.098461        -0.318059
 O         1.651082        -2.163783        -0.922662
 C         2.267057        -0.465503         1.089786
 H        -0.708766         0.371179         0.660397
 H        -0.655321         0.783975        -1.047698
 H        -0.482079        -0.905595        -0.530918
 H         2.469108         1.970708        -1.106394
 H         2.106057         1.984653         0.757199
 H         4.331898         1.713538         1.776580
 H         4.183552        -0.504914        -1.526864
 H         4.220460        -1.588715        -0.186937
 H         0.810921        -1.842936        -1.298601
 H         1.891709        -0.716448         2.190202
