19
Iteration:   333
 C        -0.215199         0.060145        -0.156059
 C         1.361719         0.121866         0.028685
 C         2.299482         1.377846        -0.000061
 C         3.480141         0.399672         0.538615
 O         4.618760         0.779775         1.247170
 C         3.678434        -0.572560        -0.619394
 C         2.192047        -1.000071        -0.298615
 O         1.645602        -2.042079        -1.031136
 C         2.303907        -0.599865         1.132126
 H        -0.633381         1.000979         0.147867
 H        -0.420719         0.241965        -1.182434
 H        -0.657345        -0.845507         0.150902
 H         2.514414         1.742814        -0.997755
 H         2.147504         2.155567         0.680946
 H         5.182218         1.337456         0.623202
 H         3.886744        -0.232236        -1.535774
 H         4.396094        -1.339547        -0.319190
 H         2.384030        -2.667244        -1.300140
 H         2.071454        -1.208293         1.897237
