19
Iteration:  1269charge 0 multiplicity 1
 C        -0.043911         0.013499        -0.023386
 C         1.392499         0.294839        -0.032761
 C         2.350150         1.402636        -0.219482
 C         3.395682         0.404993         0.532236
 O         4.567143         0.714910         1.242717
 C         3.638236        -0.638543        -0.581106
 C         2.214838        -0.989605        -0.371969
 O         1.775167        -2.130069        -0.942971
 C         2.161915        -0.491367         1.087581
 H        -0.502375         0.486288         0.870212
 H        -0.618206         0.211500        -0.959767
 H        -0.283389        -1.032743         0.218649
 H         2.512211         1.655119        -1.196850
 H         2.046146         2.323482         0.227143
 H         4.246403         1.053059         2.133941
 H         4.115523        -0.183842        -1.482968
 H         4.239732        -1.539434        -0.331420
 H         1.832953        -2.069842        -1.919682
 H         1.938922        -0.786761         2.067377
