19
Iteration:  4045
 C        -0.195882         0.313756        -0.307076
 C         1.349740         0.234188        -0.098532
 C         2.415595         1.366326        -0.065491
 C         3.492285         0.361727         0.455786
 O         4.439435         0.796612         1.475976
 C         3.676159        -0.694802        -0.707005
 C         2.283886        -1.043240        -0.351507
 O         1.817740        -2.312234        -0.798225
 C         2.264881        -0.503028         1.026111
 H        -0.437306         1.036185         0.485631
 H        -0.475202         0.583698        -1.347634
 H        -0.643092        -0.625365        -0.019428
 H         2.496628         1.930974        -0.955338
 H         2.094656         1.993312         0.757480
 H         4.967131         1.576479         1.027777
 H         3.720030        -0.442915        -1.804402
 H         4.268199        -1.573193        -0.417495
 H         0.829856        -2.217173        -0.734198
 H         1.946229        -1.008935         1.863134
