19
Iteration:  1298charge 0 multiplicity 1
 C        -0.111473         0.202948        -0.133619
 C         1.396060         0.172852         0.001448
 C         2.373776         1.357560         0.011276
 C         3.440964         0.390199         0.504978
 O         4.500734         0.988463         1.292214
 C         3.732496        -0.609943        -0.701295
 C         2.307004        -1.134700        -0.416665
 O         1.597119        -2.290093        -0.885876
 C         2.271552        -0.611654         0.986497
 H        -0.392384         1.107927         0.461543
 H        -0.515251         0.556136        -1.152349
 H        -0.639932        -0.642340         0.263040
 H         2.552153         1.956618        -0.997546
 H         2.071320         2.141443         0.729176
 H         4.340348         0.785478         2.192523
 H         4.095696        -0.112993        -1.614093
 H         4.535085        -1.343884        -0.492394
 H         1.435726        -2.287062        -1.871158
 H         2.339141        -1.115507         2.066225
