19
Iteration:   978charge 0 multiplicity 1
 C        -0.077918         0.064848        -0.179995
 C         1.437641         0.197301         0.079205
 C         2.367278         1.411320         0.034727
 C         3.382736         0.375907         0.551328
 O         4.444724         0.821802         1.369298
 C         3.685071        -0.470403        -0.762706
 C         2.303704        -0.992777        -0.484093
 O         1.599372        -2.116681        -0.917355
 C         2.320524        -0.653065         0.971143
 H        -0.726856         0.589974         0.539423
 H        -0.380935         0.561832        -1.106468
 H        -0.272531        -1.054830        -0.206328
 H         2.531161         1.745460        -1.092349
 H         1.993002         2.200783         0.716557
 H         5.173481         0.215858         1.153320
 H         3.680822         0.028549        -1.761006
 H         4.528556        -1.167173        -0.560298
 H         1.793099        -2.838123        -0.254270
 H         2.252259        -1.320205         1.944999
