19
Iteration:   128
 C        -0.002382         0.171645        -0.027822
 C         1.437089         0.163904         0.027316
 C         2.283688         1.350018         0.112142
 C         3.409036         0.455963         0.496404
 O         4.532685         0.897933         1.209209
 C         3.684796        -0.542156        -0.719843
 C         2.258140        -1.067030        -0.473162
 O         1.567727        -2.203490        -0.944456
 C         2.277418        -0.651187         0.955890
 H        -0.521316         1.015403         0.442605
 H        -0.472098         0.173408        -1.049623
 H        -0.201623        -0.771909         0.474968
 H         2.437143         1.967756        -0.818802
 H         1.950769         2.124129         0.886994
 H         4.844836         0.353023         1.981987
 H         4.002408         0.012039        -1.630410
 H         4.365718        -1.257783        -0.230245
 H         2.192448        -2.759740        -1.457809
 H         1.928870        -1.105390         1.823009
