19
Iteration:  3459charge 0 multiplicity 1
 C        -0.037615         0.482771        -0.130132
 C         1.413051         0.140563        -0.077904
 C         2.342389         1.309349        -0.057996
 C         3.469764         0.375207         0.464003
 O         4.416778         0.789722         1.277940
 C         3.578670        -0.625194        -0.667012
 C         2.304730        -1.100565        -0.365134
 O         1.890337        -2.339076        -0.857504
 C         2.157785        -0.560736         1.037117
 H        -0.183443         1.033387         0.920679
 H        -0.376896         0.928251        -1.093948
 H        -0.639249        -0.523796        -0.268119
 H         2.573710         1.728939        -1.027912
 H         2.083130         2.068280         0.578187
 H         4.284557         1.638886         1.863888
 H         3.899103        -0.069191        -1.566137
 H         4.367293        -1.296576        -0.354787
 H         0.980255        -2.555698        -1.135609
 H         1.675759        -1.002740         2.036901
