19
Iteration:  4538charge 0 multiplicity 1
 C        -0.086089         0.393693        -0.246253
 C         1.384369         0.111291         0.006637
 C         2.284080         1.418047         0.053485
 C         3.403353         0.411268         0.565491
 O         4.558845         0.823603         1.222853
 C         3.641554        -0.582615        -0.645572
 C         2.190743        -1.119513        -0.396703
 O         1.835064        -2.384148        -0.898101
 C         2.247387        -0.619499         1.073403
 H        -0.382464         1.040584         0.639567
 H        -0.140064         1.022700        -1.179278
 H        -0.564766        -0.538461        -0.272506
 H         2.286119         1.888392        -0.904635
 H         1.781947         2.275554         0.649122
 H         4.315591         1.582049         1.690437
 H         4.095249        -0.259325        -1.639916
 H         4.364445        -1.274133        -0.191860
 H         1.603639        -2.391423        -1.853986
 H         1.873622        -1.114604         2.061868
