19
Iteration:  2554charge 0 multiplicity 1
 C        -0.135721         0.176318        -0.252847
 C         1.353247         0.204384        -0.080005
 C         2.420443         1.327673         0.025044
 C         3.401927         0.393929         0.554028
 O         4.480324         0.785365         1.302389
 C         3.609153        -0.483969        -0.720658
 C         2.234844        -1.008519        -0.397787
 O         1.846662        -2.253115        -0.760592
 C         2.249848        -0.557037         1.017181
 H        -0.655408         1.106285         0.044290
 H        -0.461603         0.110584        -1.287010
 H        -0.482816        -0.751742         0.310855
 H         2.618016         1.961118        -0.753109
 H         2.147490         2.091505         0.801244
 H         4.920118        -0.136760         1.524801
 H         3.789645         0.114638        -1.620301
 H         4.291650        -1.393108        -0.661391
 H         1.511306        -2.031183        -1.673704
 H         1.802834        -0.790907         2.032028
