19
Iteration:   764charge 0 multiplicity 1
 C        -0.067993         0.188888         0.050735
 C         1.416694         0.133378        -0.004970
 C         2.349829         1.306670         0.054619
 C         3.487533         0.360528         0.551643
 O         4.567299         1.125936         1.265123
 C         3.638725        -0.552195        -0.600272
 C         2.227694        -1.097057        -0.472037
 O         1.639539        -2.231084        -1.204543
 C         2.139811        -0.698711         0.983697
 H        -0.495411         0.827535         0.825700
 H        -0.457238         0.640087        -0.917259
 H        -0.433797        -0.843416         0.274893
 H         2.524397         2.066469        -0.682500
 H         2.092568         1.986416         0.987106
 H         5.240142         0.456791         1.658134
 H         4.062929        -0.157286        -1.488771
 H         4.319266        -1.366028        -0.340203
 H         2.197434        -2.958921        -0.867251
 H         1.640386        -1.226118         1.919971
