19
Iteration:  1759
 C        -0.034143         0.282821        -0.078104
 C         1.446560         0.177214        -0.145271
 C         2.367959         1.454742        -0.015324
 C         3.369661         0.391551         0.479979
 O         4.392592         0.692764         1.408317
 C         3.726333        -0.626055        -0.640838
 C         2.261549        -1.102655        -0.513350
 O         1.694098        -2.274646        -0.777745
 C         2.232546        -0.508498         0.926129
 H        -0.295520         1.125528         0.619575
 H        -0.476864         0.640961        -1.033204
 H        -0.518539        -0.538411         0.352992
 H         2.694969         2.019912        -0.930601
 H         2.015262         2.218649         0.640064
 H         4.663586         1.593356         1.192729
 H         4.064969        -0.320495        -1.669115
 H         4.494916        -1.408352        -0.479653
 H         2.014181        -2.590316        -1.664894
 H         1.817746        -0.843458         1.850436
