19
Iteration:  1040charge 0 multiplicity 1
 C        -0.099210         0.362548        -0.106863
 C         1.383744         0.138103         0.039980
 C         2.313359         1.337711         0.150608
 C         3.358781         0.395794         0.562237
 O         4.487476         0.942330         1.134282
 C         3.664995        -0.563643        -0.628800
 C         2.223997        -1.011358        -0.491268
 O         1.909304        -2.367237        -0.965008
 C         2.210857        -0.686706         0.977102
 H        -0.559064         1.042776         0.659788
 H        -0.231537         0.773582        -1.113610
 H        -0.680268        -0.552182        -0.074304
 H         2.392361         2.026056        -0.567842
 H         1.977441         1.899169         1.072678
 H         5.027369         0.208002         1.457205
 H         4.073375        -0.060538        -1.502183
 H         4.505656        -1.195056        -0.328273
 H         0.922327        -2.319723        -1.113300
 H         1.865843        -1.264487         1.874315
