19
Iteration:  3318charge 0 multiplicity 1
 C        -0.087336         0.374697        -0.205572
 C         1.464921         0.222337        -0.055833
 C         2.293681         1.379225         0.015179
 C         3.378051         0.369789         0.504974
 O         4.533107         0.856522         1.342821
 C         3.707809        -0.615285        -0.735060
 C         2.262218        -1.125844        -0.464645
 O         1.688443        -2.380207        -0.742075
 C         2.285301        -0.600026         0.934757
 H        -0.338846         1.364181         0.147198
 H        -0.614807         0.173984        -1.100075
 H        -0.671231        -0.334369         0.459559
 H         2.671106         1.962301        -0.967390
 H         2.025531         1.973563         0.990370
 H         4.064120         1.412726         2.094807
 H         4.072636        -0.041453        -1.640238
 H         4.465962        -1.375940        -0.472172
 H         1.577622        -2.461894        -1.728412
 H         1.866270        -0.934179         1.799519
