19
Iteration:  1806
 C        -0.099077         0.303276        -0.153613
 C         1.426559         0.199942        -0.043006
 C         2.441633         1.295366        -0.134416
 C         3.412560         0.318523         0.527492
 O         4.465729         0.851368         1.347280
 C         3.658796        -0.626941        -0.688532
 C         2.254790        -1.028858        -0.457372
 O         1.743914        -2.242347        -0.807977
 C         2.244743        -0.581787         1.029424
 H        -0.583174         0.603939         0.873824
 H        -0.249332         1.090178        -0.898712
 H        -0.467568        -0.719369        -0.374845
 H         2.658337         1.859945        -1.052668
 H         2.128915         2.112349         0.451745
 H         4.175289         1.058671         2.211196
 H         4.042626        -0.296413        -1.676519
 H         4.321814        -1.493071        -0.440564
 H         1.113680        -2.063244        -1.517554
 H         1.745425        -1.026608         1.955672
