19
Iteration:   312charge 0 multiplicity 1
 C        -0.047223         0.015310        -0.102598
 C         1.423916         0.242115         0.007550
 C         2.393023         1.439826         0.084875
 C         3.403560         0.394189         0.547548
 O         4.535347         0.736650         1.266638
 C         3.628557        -0.561707        -0.676320
 C         2.246537        -1.048287        -0.417879
 O         1.623841        -2.164407        -0.962552
 C         2.174356        -0.481206         0.999522
 H        -0.726661         0.651078         0.459871
 H        -0.498288        -0.037208        -1.087575
 H         0.004676        -0.975745         0.255428
 H         2.719633         2.033725        -0.765676
 H         2.214177         2.110799         0.881333
 H         4.974781         1.313260         0.613632
 H         3.763083        -0.144291        -1.615030
 H         4.405826        -1.302413        -0.399308
 H         2.307212        -2.697179        -1.353278
 H         1.919951        -0.680362         1.953645
