19
Iteration:  4536charge 0 multiplicity 1
 C        -0.096100         0.389504        -0.230188
 C         1.382294         0.120123        -0.001219
 C         2.288542         1.415129         0.045651
 C         3.409438         0.427967         0.575464
 O         4.562458         0.810764         1.230538
 C         3.661463        -0.563816        -0.646783
 C         2.171003        -1.113231        -0.409840
 O         1.836438        -2.391715        -0.887014
 C         2.250154        -0.641180         1.038081
 H        -0.389511         1.048756         0.627503
 H        -0.220772         0.963564        -1.213678
 H        -0.536971        -0.568891        -0.244175
 H         2.336792         1.912733        -0.954799
 H         1.807357         2.307999         0.652296
 H         4.352205         1.672828         1.735775
 H         4.073377        -0.279143        -1.574167
 H         4.263070        -1.284573        -0.139853
 H         1.586362        -2.381279        -1.819659
 H         1.865601        -1.096804         2.100186
