19
Iteration:  3926charge 0 multiplicity 1
 C        -0.121348         0.205356        -0.300249
 C         1.409841         0.153225        -0.072697
 C         2.396994         1.396967        -0.147504
 C         3.450125         0.430684         0.544708
 O         4.502736         0.634870         1.327928
 C         3.720898        -0.476639        -0.730664
 C         2.263981        -1.082295        -0.333061
 O         1.630263        -2.275249        -0.704665
 C         2.213326        -0.424512         1.068388
 H        -0.558821         1.001390         0.361359
 H        -0.404839         0.346769        -1.376005
 H        -0.647197        -0.685480        -0.082275
 H         2.812777         2.078111        -1.003429
 H         1.999251         1.995055         0.649829
 H         4.296060         1.137785         2.065714
 H         3.706846         0.034071        -1.746452
 H         4.694707        -0.990795        -0.686246
 H         2.117804        -2.658209        -1.442501
 H         2.159764        -1.025546         2.067275
