19
Iteration:  4435
 C        -0.071712         0.175760        -0.276056
 C         1.404864         0.126068        -0.041627
 C         2.396585         1.368505         0.003646
 C         3.428320         0.350145         0.565242
 O         4.487540         0.985696         1.160794
 C         3.661584        -0.671619        -0.582258
 C         2.262287        -0.985862        -0.319237
 O         1.731708        -2.189284        -0.895081
 C         2.178150        -0.638512         1.119590
 H        -0.284050         0.949252         0.443477
 H        -0.315972         0.572466        -1.284302
 H        -0.708048        -0.772447        -0.080223
 H         2.792064         1.837692        -0.962268
 H         2.109671         2.141292         0.746139
 H         4.857909         0.423132         1.907734
 H         3.905208        -0.269883        -1.533127
 H         4.250220        -1.550645        -0.208074
 H         1.156637        -2.048981        -1.664235
 H         1.922333        -1.282586         1.870051
