19
Iteration:  1386
 C        -0.101244         0.053252        -0.171350
 C         1.445259         0.270107        -0.062791
 C         2.316301         1.423529        -0.049602
 C         3.435719         0.408072         0.524609
 O         4.501762         0.739284         1.292248
 C         3.664588        -0.640508        -0.580439
 C         2.265505        -1.051298        -0.334571
 O         1.677204        -2.194902        -0.891664
 C         2.223767        -0.425364         1.060507
 H        -0.609898         0.389080         0.714449
 H        -0.530929         0.478338        -1.077451
 H        -0.339723        -0.943904        -0.201585
 H         2.617361         2.187599        -0.905035
 H         1.988486         2.116387         0.711982
 H         5.120795         0.798913         0.586791
 H         4.012445        -0.258979        -1.523682
 H         4.401733        -1.370135        -0.265879
 H         1.893364        -2.247232        -1.867220
 H         1.893067        -0.883597         1.910247
