19
Iteration:  2742charge 0 multiplicity 1
 C         0.027181         0.126452        -0.294799
 C         1.443214         0.123930         0.063041
 C         2.366720         1.369927        -0.045342
 C         3.387776         0.391266         0.547620
 O         4.456415         0.961512         1.276988
 C         3.708076        -0.602728        -0.639010
 C         2.271391        -1.023815        -0.378144
 O         1.577184        -2.204901        -0.866565
 C         2.271286        -0.611933         1.061499
 H        -0.300885         1.022911         0.318129
 H        -0.219485         0.219870        -1.352521
 H        -0.351411        -0.833352         0.211585
 H         2.595461         1.928071        -0.970253
 H         1.922999         2.165420         0.688425
 H         4.899378         0.152007         1.630724
 H         3.930454        -0.247821        -1.679549
 H         4.451313        -1.418294        -0.314811
 H         1.070377        -1.875786        -1.676014
 H         2.065938        -1.061268         1.922678
