19
Iteration:  1715
 C        -0.097988         0.165867        -0.267659
 C         1.359514         0.212706         0.088721
 C         2.397384         1.380410        -0.053520
 C         3.429006         0.396649         0.621895
 O         4.544106         0.869634         1.249086
 C         3.658856        -0.618340        -0.562990
 C         2.264280        -1.055098        -0.377468
 O         1.712128        -2.236290        -0.975429
 C         2.168841        -0.588248         1.108182
 H        -0.583002         1.092410         0.082829
 H        -0.208515         0.459530        -1.334112
 H        -0.784619        -0.592476        -0.027399
 H         2.564658         1.788567        -1.082609
 H         2.224410         2.238405         0.550867
 H         5.211609         0.194215         1.207616
 H         4.190636        -0.334735        -1.449018
 H         4.369874        -1.393576        -0.254658
 H         1.068357        -1.876001        -1.643398
 H         2.000947        -1.007933         2.012001
