19
Iteration:  1416charge 0 multiplicity 1
 C        -0.052525         0.090025        -0.025749
 C         1.465193         0.210768        -0.068125
 C         2.396461         1.403125        -0.138679
 C         3.485132         0.385025         0.519890
 O         4.433537         0.894450         1.442705
 C         3.743218        -0.698233        -0.612655
 C         2.258047        -1.063444        -0.505746
 O         1.507535        -2.192148        -0.916313
 C         2.288032        -0.522963         0.975088
 H        -0.518880         0.643341         0.807511
 H        -0.576977         0.632387        -0.821015
 H        -0.342594        -0.991117        -0.077683
 H         2.678165         1.767260        -1.089972
 H         2.052967         2.193505         0.564869
 H         4.468976         1.860360         1.228616
 H         4.231344        -0.442379        -1.586897
 H         4.348766        -1.511689        -0.171960
 H         1.848876        -2.489478        -1.765807
 H         2.056269        -1.120213         1.885694
