19
Iteration:  4985
 C        -0.138175         0.383919        -0.052310
 C         1.390515         0.118093        -0.101077
 C         2.306805         1.332336        -0.060961
 C         3.347536         0.339881         0.557594
 O         4.369839         0.889233         1.262657
 C         3.754902        -0.573897        -0.560243
 C         2.336529        -1.058957        -0.447935
 O         1.898916        -2.302545        -0.918523
 C         2.189651        -0.591118         1.002860
 H        -0.362813         0.820982         0.938030
 H        -0.501019         1.122540        -0.812340
 H        -0.753655        -0.568829        -0.152456
 H         2.538511         1.837829        -1.056546
 H         2.225986         2.051072         0.725685
 H         4.908023         0.209073         1.601353
 H         3.946593        -0.081990        -1.471011
 H         4.439627        -1.361904        -0.366857
 H         1.314017        -2.131095        -1.670791
 H         2.006560        -1.259683         1.820744
