19
Iteration:  1315
 C        -0.013590         0.389831        -0.214066
 C         1.443242         0.115578         0.005341
 C         2.252363         1.351943         0.117138
 C         3.457913         0.411744         0.494065
 O         4.473751         1.034441         1.286536
 C         3.726790        -0.598173        -0.727399
 C         2.242149        -1.114381        -0.496667
 O         1.622758        -2.397474        -0.790734
 C         2.391104        -0.694160         0.945353
 H        -0.476781         1.203524         0.338493
 H        -0.118382         0.398101        -1.263857
 H        -0.749023        -0.449303         0.096315
 H         2.204108         2.136931        -0.605232
 H         1.970103         1.914911         1.044252
 H         4.407899         0.704869         2.160197
 H         3.972469        -0.331733        -1.782639
 H         4.487417        -1.352905        -0.460437
 H         1.076560        -2.078778        -1.566612
 H         2.001285        -1.258612         1.739840
