19
Iteration:   591charge 0 multiplicity 1
 C        -0.050744         0.157516        -0.000801
 C         1.410050         0.226175        -0.016289
 C         2.326236         1.421904        -0.025362
 C         3.432103         0.417124         0.518788
 O         4.446864         0.919979         1.334367
 C         3.749080        -0.606394        -0.695071
 C         2.242842        -1.068797        -0.521309
 O         1.590883        -2.239887        -0.958950
 C         2.295209        -0.587610         0.932906
 H        -0.497480         0.646227         0.911312
 H        -0.448630         0.643547        -0.952683
 H        -0.397530        -0.929045        -0.118882
 H         2.499775         2.017603        -0.949706
 H         2.044349         2.076522         0.899701
 H         4.787012         0.204492         1.843532
 H         4.084546        -0.107603        -1.621594
 H         4.476078        -1.495157        -0.469085
 H         2.120315        -3.013896        -0.631632
 H         2.174302        -1.002466         1.876890
