19
Iteration:   991charge 0 multiplicity 1
 C        -0.061284         0.102267        -0.228041
 C         1.367648         0.161494         0.009837
 C         2.303531         1.373623         0.046737
 C         3.469964         0.404961         0.523758
 O         4.508786         0.751379         1.339308
 C         3.535836        -0.412082        -0.767362
 C         2.198092        -0.986068        -0.370474
 O         1.727226        -2.187516        -0.968724
 C         2.359742        -0.569715         1.060101
 H        -0.574651         0.537422         0.589976
 H        -0.271439         0.511821        -1.223078
 H        -0.473737        -0.924500        -0.304030
 H         2.552608         2.041895        -0.882550
 H         2.071731         2.079090         0.791547
 H         5.227549         0.096354         1.412161
 H         3.852075         0.204458        -1.638401
 H         4.231171        -1.257477        -0.747147
 H         1.668988        -2.764785        -0.198015
 H         2.166887        -1.004251         2.090630
