19
Iteration:   522
 C        -0.043626         0.215637        -0.168988
 C         1.416833         0.156855         0.054723
 C         2.329676         1.381911         0.045066
 C         3.428631         0.399615         0.546423
 O         4.544511         0.968687         1.250130
 C         3.597456        -0.551837        -0.658647
 C         2.224628        -1.117542        -0.403050
 O         1.586467        -2.239218        -1.058168
 C         2.361921        -0.626816         1.055324
 H        -0.532616         1.098368         0.271073
 H        -0.256865         0.155150        -1.285976
 H        -0.556353        -0.737456         0.191038
 H         2.573785         1.945661        -0.892967
 H         2.010564         2.129710         0.894403
 H         4.693507         0.409317         1.987472
 H         3.716413        -0.075871        -1.678928
 H         4.526712        -1.277083        -0.571150
 H         1.941552        -3.037163        -0.642561
 H         2.309754        -1.137621         2.114968
