19
Iteration:  4733charge 0 multiplicity 1
 C        -0.106892         0.032319        -0.284072
 C         1.377025         0.150428         0.039206
 C         2.341495         1.361029        -0.022637
 C         3.392429         0.355761         0.579323
 O         4.585673         0.743372         1.310262
 C         3.710115        -0.502394        -0.699252
 C         2.275588        -1.018300        -0.343355
 O         1.695119        -2.112054        -0.859782
 C         2.207945        -0.565891         1.055116
 H        -0.770819         0.639597         0.386048
 H        -0.144438         0.421551        -1.317375
 H        -0.367932        -0.987080        -0.255248
 H         2.709682         1.807157        -0.962473
 H         2.138298         2.066786         0.718209
 H         4.447760         1.629883         1.629561
 H         3.628672        -0.039846        -1.779752
 H         4.506704        -1.227886        -0.611696
 H         1.360216        -1.813347        -1.735285
 H         1.944169        -0.931123         1.957796
