19
Iteration:  2655charge 0 multiplicity 1
 C        -0.160494         0.291211        -0.172290
 C         1.327864         0.186934        -0.052408
 C         2.365444         1.381427        -0.102849
 C         3.423952         0.381010         0.554134
 O         4.517932         0.795709         1.314073
 C         3.694583        -0.585330        -0.616911
 C         2.241000        -1.129874        -0.372996
 O         1.787982        -2.304972        -0.869544
 C         2.272911        -0.517514         0.988341
 H        -0.508865         0.732638         0.811497
 H        -0.578076         0.892893        -0.969246
 H        -0.693498        -0.725291        -0.168611
 H         2.733143         1.902457        -0.934886
 H         1.985278         2.065284         0.713020
 H         4.295393         1.622111         1.693787
 H         3.989484        -0.288809        -1.628761
 H         4.323144        -1.419469        -0.215894
 H         1.803950        -2.236105        -1.857443
 H         2.090187        -1.071109         1.864153
