19
Iteration:  3098
 C        -0.022497         0.171131        -0.219555
 C         1.430310         0.193506         0.055781
 C         2.467900         1.316494        -0.142593
 C         3.431260         0.383930         0.563209
 O         4.446070         0.871788         1.283885
 C         3.757313        -0.633945        -0.567574
 C         2.276325        -1.073496        -0.390219
 O         1.561347        -2.223846        -0.931255
 C         2.279726        -0.532557         1.047879
 H        -0.627632         1.053055         0.270189
 H        -0.316709         0.275522        -1.277042
 H        -0.470890        -0.745181         0.239776
 H         2.332838         1.591387        -1.192600
 H         2.061019         2.285026         0.518782
 H         4.079976         1.612319         1.785988
 H         4.223791        -0.340445        -1.549879
 H         4.360501        -1.426752        -0.027159
 H         0.804852        -1.884948        -1.482452
 H         2.307813        -1.262487         2.028102
