19
Iteration:  2091
 C        -0.216133         0.371005        -0.239789
 C         1.407466         0.202715        -0.091457
 C         2.422005         1.374301        -0.127268
 C         3.424918         0.378036         0.516233
 O         4.509959         0.739054         1.278489
 C         3.680115        -0.621725        -0.586974
 C         2.244531        -1.140812        -0.308541
 O         1.815368        -2.270112        -0.906211
 C         2.142251        -0.486362         1.055670
 H        -0.610630         1.132075         0.581491
 H        -0.738603         0.839433        -1.072242
 H        -0.689779        -0.552980        -0.027677
 H         2.609827         1.770039        -1.111272
 H         2.319192         2.124724         0.691604
 H         4.341345         0.990526         2.238790
 H         3.865380        -0.170634        -1.626869
 H         4.467329        -1.320019        -0.328008
 H         2.500887        -2.930049        -0.918006
 H         1.783275        -0.888266         2.111833
