19
Iteration:   156
 C        -0.110307         0.082588        -0.106690
 C         1.407940         0.117320         0.090471
 C         2.357372         1.343698         0.036180
 C         3.433498         0.409080         0.505328
 O         4.512974         0.801445         1.301912
 C         3.655642        -0.522023        -0.880529
 C         2.291792        -1.052937        -0.401959
 O         1.592119        -2.141881        -0.899557
 C         2.405411        -0.573658         1.031145
 H        -0.604309         0.883223         0.488042
 H        -0.380358         0.140307        -1.156364
 H        -0.514226        -0.867362         0.294747
 H         2.610015         1.825125        -0.923439
 H         2.088450         2.086328         0.722861
 H         4.179976         1.160220         2.192497
 H         3.744377         0.041082        -1.821157
 H         4.468232        -1.257731        -0.707356
 H         1.496899        -2.004587        -1.896632
 H         2.248876        -0.783400         2.200868
