19
Iteration:  4624charge 0 multiplicity 1
 C        -0.104591         0.059540        -0.101560
 C         1.409000         0.209513        -0.158130
 C         2.435395         1.458627        -0.038679
 C         3.388702         0.401847         0.512069
 O         4.462653         0.682381         1.348959
 C         3.746322        -0.615822        -0.712204
 C         2.329303        -1.076530        -0.357253
 O         1.706007        -2.176227        -0.817997
 C         2.176368        -0.451078         0.963983
 H        -0.643701         0.671268         0.680316
 H        -0.636817         0.380448        -1.045287
 H        -0.497266        -0.914993        -0.079097
 H         2.570876         2.010090        -0.999118
 H         1.971878         2.064269         0.789837
 H         4.480255         1.573768         1.900182
 H         3.847553        -0.122063        -1.614353
 H         4.454217        -1.352314        -0.535896
 H         1.589037        -1.907988        -1.736762
 H         1.918000        -0.913222         1.967549
