19
Iteration:  2958
 C        -0.107191         0.215107        -0.110867
 C         1.397695         0.177432        -0.080525
 C         2.328687         1.329386        -0.095886
 C         3.466054         0.413442         0.499790
 O         4.473779         0.859862         1.314082
 C         3.805254        -0.654874        -0.610450
 C         2.203357        -1.031462        -0.473634
 O         1.705416        -2.235505        -0.823164
 C         2.256102        -0.548095         0.966467
 H        -0.390973         1.015931         0.572257
 H        -0.488418         0.382277        -1.181019
 H        -0.618025        -0.712498         0.304622
 H         2.529189         1.769400        -1.135164
 H         2.115821         2.077321         0.623160
 H         4.330876         0.735269         2.211198
 H         4.312030        -0.253504        -1.535961
 H         4.366295        -1.497819        -0.119666
 H         1.158859        -1.903634        -1.562454
 H         1.935058        -0.984969         1.944888
