19
Iteration:  4162charge 0 multiplicity 1
 C        -0.065475         0.276321        -0.330173
 C         1.438391         0.093985        -0.113621
 C         2.394409         1.196623        -0.045398
 C         3.513113         0.457116         0.564661
 O         4.493665         1.030165         1.305191
 C         3.705463        -0.650058        -0.559813
 C         2.191732        -1.137283        -0.366234
 O         1.545929        -2.142209        -0.891458
 C         2.272123        -0.576164         1.071735
 H        -0.348110         0.814470         0.519041
 H        -0.158003         0.841090        -1.223325
 H        -0.786535        -0.623458        -0.435770
 H         2.602655         1.728939        -0.973406
 H         1.769997         1.766341         0.692961
 H         4.969996         0.431897         2.011077
 H         3.952635        -0.597812        -1.633773
 H         4.259378        -1.485618        -0.113536
 H         2.089356        -2.921458        -1.017838
 H         1.926088        -0.646259         2.017050
