19
Iteration:  2845charge 0 multiplicity 1
 C        -0.052702         0.299556        -0.190318
 C         1.424080         0.192320        -0.130775
 C         2.363219         1.407435        -0.030200
 C         3.401049         0.390965         0.477854
 O         4.361453         0.718903         1.453337
 C         3.630283        -0.511391        -0.822134
 C         2.308704        -1.059078        -0.431349
 O         1.740819        -2.315922        -0.661499
 C         2.301742        -0.582630         0.945982
 H        -0.525119         0.676521         0.847164
 H        -0.443903         0.808007        -1.159617
 H        -0.303543        -0.757352        -0.287748
 H         2.516619         1.950886        -0.987923
 H         2.069171         2.024829         0.870161
 H         5.072374         1.360898         1.101295
 H         3.890642         0.098852        -1.780719
 H         4.378863        -1.229413        -0.465883
 H         1.407082        -2.538663        -1.526911
 H         2.094754        -1.067904         2.022292
