19
Iteration:  3838charge 0 multiplicity 1
 C        -0.013617         0.162264        -0.199336
 C         1.458315         0.152110         0.026891
 C         2.403993         1.317587        -0.173615
 C         3.458424         0.397698         0.558086
 O         4.548520         0.900373         1.228765
 C         3.653925        -0.737548        -0.488479
 C         2.230546        -1.103667        -0.345507
 O         1.702498        -2.188877        -1.062905
 C         2.128788        -0.444633         1.181384
 H        -0.442266         0.658620         0.679448
 H        -0.174939         0.741947        -1.126142
 H        -0.550258        -0.768775        -0.158529
 H         2.621618         1.526708        -1.325535
 H         1.950846         2.149446         0.350982
 H         4.398414         1.466241         1.948355
 H         3.733986        -0.490443        -1.519039
 H         4.339242        -1.323194         0.084357
 H         0.814451        -2.107801        -1.437738
 H         1.772065        -0.735869         2.250093
