19
Iteration:  3686charge 0 multiplicity 1
 C        -0.028690         0.072591        -0.220779
 C         1.443865         0.202516        -0.100528
 C         2.437194         1.332744        -0.062082
 C         3.455901         0.372501         0.515147
 O         4.510472         0.872039         1.298369
 C         3.726106        -0.673855        -0.605101
 C         2.218216        -1.025132        -0.314779
 O         1.563198        -2.147495        -0.971279
 C         2.249546        -0.507321         1.078928
 H        -0.520942         0.727862         0.579400
 H        -0.398330         0.559580        -1.217139
 H        -0.363280        -0.957047        -0.201762
 H         2.784673         1.908886        -0.950055
 H         1.984256         2.004849         0.626379
 H         4.211116         1.631362         1.714486
 H         4.126127        -0.366363        -1.588259
 H         4.368220        -1.456331        -0.199316
 H         1.122871        -2.697135        -0.320644
 H         1.797646        -0.806123         1.944786
