19
Iteration:  1422
 C        -0.024239         0.163521        -0.039299
 C         1.436982         0.152721        -0.013415
 C         2.406946         1.395182        -0.168620
 C         3.463702         0.352217         0.526054
 O         4.429719         0.934462         1.457286
 C         3.740487        -0.683617        -0.621306
 C         2.234659        -1.055779        -0.506520
 O         1.506802        -2.222945        -0.911742
 C         2.334819        -0.532423         0.941502
 H        -0.431243         0.612764         0.909952
 H        -0.603360         0.598598        -0.945784
 H        -0.270074        -0.949744         0.002313
 H         2.784431         1.735178        -1.202161
 H         2.067534         2.128018         0.589223
 H         4.405722         1.860269         1.441183
 H         4.085364        -0.307414        -1.604150
 H         4.253486        -1.577799        -0.224218
 H         1.930866        -2.377419        -1.806393
 H         1.979710        -1.177998         1.814744
