19
Iteration:  1236
 C        -0.188438         0.029323        -0.077408
 C         1.420145         0.203576        -0.107812
 C         2.394507         1.453931        -0.051167
 C         3.435048         0.438575         0.499220
 O         4.534817         0.737308         1.314139
 C         3.756027        -0.597620        -0.623504
 C         2.247493        -1.071499        -0.409763
 O         1.668344        -2.229032        -0.882476
 C         2.226002        -0.472291         0.997074
 H        -0.578339         0.475650         0.852176
 H        -0.803512         0.512680        -0.873551
 H        -0.400055        -1.043289        -0.102538
 H         2.542058         2.030074        -0.927198
 H         1.985904         1.981966         0.804682
 H         4.789339         1.635746         1.251723
 H         4.109551        -0.112959        -1.541998
 H         4.362988        -1.380450        -0.145918
 H         1.584354        -2.029223        -1.856972
 H         1.983134        -0.589595         2.032137
