19
Iteration:  2836charge 0 multiplicity 1
 C        -0.115726         0.269049        -0.152915
 C         1.414790         0.210542        -0.114033
 C         2.363118         1.337781        -0.075574
 C         3.409916         0.457396         0.485500
 O         4.357017         0.713296         1.462599
 C         3.704506        -0.551452        -0.813263
 C         2.301095        -1.100147        -0.408395
 O         1.756329        -2.295477        -0.689008
 C         2.281135        -0.568614         0.958223
 H        -0.444798         0.849470         0.783701
 H        -0.402804         0.970498        -1.038443
 H        -0.649721        -0.683261        -0.225157
 H         2.594754         2.056426        -0.956158
 H         2.001954         1.965284         0.723484
 H         5.134037         1.192415         1.018738
 H         3.802203         0.171531        -1.726836
 H         4.603835        -1.227588        -0.699684
 H         1.537044        -2.346261        -1.626222
 H         2.013685        -0.872854         1.947615
