19
Iteration:  1131charge 0 multiplicity 1
 C        -0.212521        -0.020140        -0.112515
 C         1.359476         0.275657        -0.103226
 C         2.415732         1.488865         0.004209
 C         3.407023         0.433120         0.523985
 O         4.603695         0.753077         1.364164
 C         3.722312        -0.543367        -0.631243
 C         2.214479        -0.997146        -0.451504
 O         1.724055        -2.294336        -0.855979
 C         2.155462        -0.478173         0.961548
 H        -0.659814         0.604332         0.694627
 H        -0.693162         0.117392        -1.103986
 H        -0.479750        -1.094928         0.266369
 H         2.739082         2.015640        -0.810216
 H         2.248315         2.178046         0.831461
 H         5.302766         1.035960         0.799261
 H         4.086080        -0.240356        -1.638380
 H         4.454825        -1.320387        -0.408807
 H         1.477520        -2.257299        -1.811882
 H         1.848546        -0.854685         1.881089
