19
Iteration:  2763
 C        -0.118506         0.143869        -0.174671
 C         1.401665         0.143344        -0.059507
 C         2.399472         1.313946        -0.024071
 C         3.481459         0.382194         0.559458
 O         4.486879         1.019209         1.300594
 C         3.747592        -0.648529        -0.513445
 C         2.252311        -1.126717        -0.340124
 O         1.586224        -2.185309        -0.992310
 C         2.237781        -0.568907         1.040567
 H        -0.595176         1.021619         0.324725
 H        -0.330932         0.246512        -1.234993
 H        -0.430722        -0.896732         0.194615
 H         2.640677         1.942852        -0.901100
 H         2.112409         2.188213         0.646383
 H         5.307345         0.664122         1.031711
 H         4.078872        -0.388738        -1.553474
 H         4.484114        -1.475114        -0.228340
 H         1.165286        -2.010220        -1.843134
 H         1.885434        -0.872039         1.897747
