19
Iteration:  2890
 C        -0.148141         0.135789        -0.318130
 C         1.410205         0.192327        -0.036558
 C         2.320843         1.340648         0.033739
 C         3.478946         0.408670         0.533411
 O         4.556318         0.780936         1.276728
 C         3.722897        -0.585979        -0.611318
 C         2.238690        -1.044771        -0.296974
 O         1.649552        -2.202424        -0.860201
 C         2.267359        -0.564260         1.069872
 H        -0.487577         0.882782         0.491993
 H        -0.335253         0.541818        -1.365958
 H        -0.597866        -0.833788        -0.162966
 H         2.566519         1.871966        -0.930977
 H         1.922854         1.990890         0.793892
 H         4.532344         1.770515         0.994204
 H         3.889366        -0.191011        -1.652748
 H         4.416021        -1.404892        -0.332163
 H         1.476144        -1.990391        -1.777271
 H         2.149682        -1.061836         1.918362
