19
Iteration:  2241charge 0 multiplicity 1
 C        -0.087710         0.369054        -0.195713
 C         1.459036         0.197474        -0.118369
 C         2.420737         1.373264        -0.052713
 C         3.392424         0.433331         0.509526
 O         4.407209         0.947080         1.421236
 C         3.694630        -0.626484        -0.688836
 C         2.237071        -1.103341        -0.424872
 O         1.691930        -2.367306        -0.841374
 C         2.220511        -0.619298         0.962469
 H        -0.576617         0.741354         0.653570
 H        -0.254128         0.885002        -1.192660
 H        -0.654748        -0.534468        -0.495084
 H         2.566053         1.924232        -1.046691
 H         2.177410         2.055248         0.884770
 H         5.191353         0.377843         1.210698
 H         4.067388        -0.045411        -1.548755
 H         4.473936        -1.348463        -0.266417
 H         1.779000        -2.967042        -0.105754
 H         1.909825        -1.219279         1.848478
