19
Iteration:  1820
 C        -0.052526         0.275620        -0.210640
 C         1.401716         0.202898        -0.037773
 C         2.374758         1.402689        -0.030111
 C         3.431451         0.396628         0.553862
 O         4.538310         0.870209         1.209662
 C         3.707172        -0.696137        -0.557086
 C         2.262708        -1.098565        -0.333417
 O         1.719874        -2.259856        -0.930689
 C         2.154994        -0.561206         1.017499
 H        -0.530242         0.546363         0.749921
 H        -0.398321         0.953961        -0.993163
 H        -0.605651        -0.684009        -0.585254
 H         2.670106         1.701249        -1.005808
 H         2.199787         2.196090         0.686771
 H         4.327015         0.753796         2.181718
 H         3.925368        -0.252042        -1.511173
 H         4.329645        -1.432221        -0.149635
 H         0.856145        -2.073592        -1.406584
 H         2.053388        -1.109657         1.855865
