19
Iteration:  3383charge 0 multiplicity 1
 C        -0.017778         0.081199        -0.283664
 C         1.361651         0.174965         0.033393
 C         2.401699         1.392841        -0.041744
 C         3.436790         0.426987         0.535271
 O         4.616914         0.795231         1.197861
 C         3.636098        -0.631109        -0.547729
 C         2.241101        -1.074234        -0.255405
 O         1.636748        -2.214865        -1.002387
 C         2.177121        -0.448002         1.125075
 H        -0.593900         0.887537         0.229972
 H        -0.279244         0.115893        -1.328051
 H        -0.212748        -0.964928         0.138780
 H         2.865082         1.925795        -1.037105
 H         2.175265         2.234862         0.654915
 H         4.434899         1.355085         1.923952
 H         3.819145        -0.367723        -1.607315
 H         4.443812        -1.223946        -0.114179
 H         0.980689        -1.959154        -1.689323
 H         1.785493        -0.936088         2.035746
