19
Iteration:  2485charge 0 multiplicity 1
 C        -0.100559         0.229315        -0.119149
 C         1.396331         0.177955        -0.065173
 C         2.366326         1.268699        -0.070567
 C         3.498672         0.379047         0.465904
 O         4.480588         1.036120         1.340513
 C         3.709052        -0.664935        -0.647032
 C         2.302022        -1.105278        -0.355758
 O         1.689162        -2.201189        -0.913280
 C         2.196072        -0.639750         1.067334
 H        -0.690935         0.696523         0.682979
 H        -0.543444         0.929771        -0.920296
 H        -0.370609        -0.770562        -0.327482
 H         2.599825         1.689707        -1.027366
 H         2.183702         2.095763         0.548498
 H         4.575307         0.628146         2.232309
 H         3.816990        -0.148020        -1.689945
 H         4.348576        -1.527373        -0.536364
 H         1.395473        -2.006410        -1.848178
 H         1.871765        -1.253183         1.865801
