19
Iteration:  1184charge 0 multiplicity 1
 C        -0.144831         0.444703        -0.306093
 C         1.403072         0.057631         0.128177
 C         2.249546         1.220442         0.097421
 C         3.437296         0.364578         0.470094
 O         4.448653         0.923316         1.377890
 C         3.680404        -0.494738        -0.812915
 C         2.253508        -1.162354        -0.360381
 O         1.713061        -2.357606        -0.811762
 C         2.450944        -0.619685         1.020039
 H        -0.568682         1.323153         0.164708
 H        -0.045707         0.832248        -1.262674
 H        -0.881720        -0.398188        -0.403632
 H         2.161844         1.751411        -1.013414
 H         2.053289         1.971243         1.009753
 H         5.038445         1.513660         0.954123
 H         3.766466         0.128550        -1.715183
 H         4.519616        -1.207894        -0.739667
 H         1.178721        -2.085352        -1.598708
 H         2.544456        -1.193405         1.847209
