19
Iteration:   291
 C        -0.052303         0.050107        -0.044503
 C         1.464051         0.171863        -0.116680
 C         2.357722         1.498869         0.005379
 C         3.469858         0.462878         0.461368
 O         4.454219         0.730124         1.419254
 C         3.641473        -0.535369        -0.761943
 C         2.251843        -1.026086        -0.458626
 O         1.537206        -2.236171        -0.912700
 C         2.342337        -0.558328         1.006893
 H        -0.435430         0.740106         0.740156
 H        -0.616900         0.397606        -0.963974
 H        -0.323826        -0.978017         0.170961
 H         2.490839         2.334553        -0.687564
 H         1.932736         1.992414         0.880462
 H         5.142974         1.288117         1.058450
 H         3.873146        -0.008089        -1.716924
 H         4.361541        -1.345198        -0.440648
 H         2.317467        -2.828730        -1.045032
 H         1.998925        -0.837359         1.913616
