19
Iteration:  2356charge 0 multiplicity 1
 C        -0.056846         0.215768        -0.256774
 C         1.353683         0.183836        -0.022115
 C         2.419646         1.404670         0.077908
 C         3.485068         0.401402         0.454095
 O         4.481473         0.809473         1.390550
 C         3.708665        -0.549628        -0.718784
 C         2.205266        -1.101036        -0.446659
 O         1.614785        -2.321819        -0.784200
 C         2.294511        -0.544646         0.964372
 H        -0.441079         1.251640         0.081709
 H        -0.157315         0.035888        -1.306218
 H        -0.705570        -0.511912         0.247500
 H         2.407308         2.003484        -0.856869
 H         1.878466         1.988295         0.926734
 H         4.487348         1.791648         1.377596
 H         3.954273        -0.051316        -1.646724
 H         4.449940        -1.272917        -0.435518
 H         1.955390        -2.687759        -1.590074
 H         2.023072        -1.053321         2.002070
