19
Iteration:  4382charge 0 multiplicity 1
 C        -0.044615         0.367867        -0.261283
 C         1.390603         0.134807        -0.095076
 C         2.279427         1.325298        -0.037623
 C         3.400257         0.357633         0.538038
 O         4.463317         0.763284         1.348112
 C         3.628160        -0.603216        -0.678995
 C         2.330295        -1.052557        -0.351247
 O         1.758317        -2.270168        -0.721253
 C         2.271310        -0.541443         0.993323
 H        -0.624781         0.705830         0.588571
 H        -0.310598         1.028411        -1.119661
 H        -0.506388        -0.653885        -0.485553
 H         2.577913         1.879434        -0.905747
 H         1.788210         1.993005         0.714027
 H         4.951409         1.554919         0.878407
 H         3.815486        -0.212072        -1.730468
 H         4.507642        -1.265315        -0.378025
 H         1.408520        -2.346932        -1.621700
 H         2.095980        -1.014488         1.878292
