19
Iteration:  4384charge 0 multiplicity 1
 C        -0.066993         0.382719        -0.269227
 C         1.388653         0.117006        -0.108093
 C         2.289782         1.341845        -0.021709
 C         3.390281         0.366338         0.543851
 O         4.473528         0.778292         1.344775
 C         3.635963        -0.609120        -0.682254
 C         2.325184        -1.080343        -0.346711
 O         1.761393        -2.279956        -0.734392
 C         2.276589        -0.532639         1.009536
 H        -0.634688         0.713275         0.614788
 H        -0.307389         1.018732        -1.143473
 H        -0.416455        -0.588079        -0.485599
 H         2.527483         1.889982        -0.878704
 H         1.761190         1.968222         0.737244
 H         4.993003         1.506489         0.831974
 H         3.839427        -0.230978        -1.752421
 H         4.433358        -1.271890        -0.331735
 H         1.372586        -2.298269        -1.611187
 H         2.114357        -1.090673         1.881254
