19
Iteration:   735
 C        -0.123291         0.190320         0.057576
 C         1.396591         0.082779         0.042369
 C         2.306029         1.321721        -0.048773
 C         3.424713         0.302781         0.450932
 O         4.353535         0.905986         1.333087
 C         3.760689        -0.543383        -0.761649
 C         2.350828        -0.993860        -0.476716
 O         1.639836        -2.074692        -1.025972
 C         2.368483        -0.639064         0.974934
 H        -0.253530         1.002660         0.834111
 H        -0.396488         0.291406        -1.013085
 H        -0.722237        -0.665472         0.312820
 H         2.394357         1.989169        -0.957488
 H         2.160925         2.031003         0.768149
 H         4.682372         0.322048         2.027930
 H         4.118208        -0.002829        -1.682008
 H         4.437371        -1.394735        -0.373803
 H         1.956686        -2.849350        -0.580200
 H         2.224940        -1.240291         1.989736
