19
Iteration:  2290charge 0 multiplicity 1
 C        -0.045459         0.164939        -0.165518
 C         1.458915         0.219378         0.013083
 C         2.338581         1.396683        -0.132944
 C         3.456463         0.424850         0.485073
 O         4.508929         0.923446         1.279712
 C         3.650917        -0.746840        -0.496057
 C         2.216567        -1.080614        -0.325064
 O         1.738945        -2.233474        -1.071388
 C         2.228861        -0.523412         1.060772
 H        -0.545798         0.616461         0.749996
 H        -0.339192         0.527019        -1.092699
 H        -0.531098        -0.795098        -0.136290
 H         2.702821         1.637288        -1.113417
 H         1.912083         2.252484         0.388389
 H         4.286522         0.788129         2.203832
 H         4.030344        -0.506870        -1.489207
 H         4.309714        -1.387729         0.028068
 H         0.757435        -2.055746        -1.149221
 H         2.115289        -0.942142         2.113650
