19
Iteration:  1402
 C        -0.098207         0.042825        -0.075072
 C         1.395412         0.196855        -0.120352
 C         2.423969         1.408595        -0.056754
 C         3.408326         0.415444         0.467018
 O         4.438388         0.795166         1.327835
 C         3.803820        -0.699191        -0.583160
 C         2.308379        -1.030209        -0.373590
 O         1.574088        -2.099873        -0.887946
 C         2.194660        -0.514645         0.966053
 H        -0.420460         0.389565         0.961625
 H        -0.569552         0.503994        -1.060273
 H        -0.412818        -1.114710        -0.090299
 H         2.570215         1.937176        -0.973195
 H         2.228465         2.135271         0.801136
 H         5.033841         1.512491         1.006070
 H         4.160757        -0.377796        -1.609490
 H         4.429537        -1.406935         0.007780
 H         1.915496        -2.392217        -1.753136
 H         1.932073        -0.716731         2.101493
