19
Iteration:  2075
 C        -0.133844         0.319995        -0.221314
 C         1.325606         0.206641        -0.122323
 C         2.349609         1.432797        -0.087166
 C         3.374897         0.381169         0.525892
 O         4.567004         0.622940         1.283264
 C         3.697988        -0.599728        -0.625871
 C         2.276877        -1.027948        -0.361509
 O         1.779226        -2.342051        -0.804954
 C         2.157890        -0.403555         1.034097
 H        -0.476659         0.830554         0.674810
 H        -0.183467         0.954356        -1.176985
 H        -0.678160        -0.688693        -0.457153
 H         2.714642         1.930933        -1.027429
 H         1.810088         2.111883         0.645247
 H         4.230921         1.082489         2.142707
 H         3.855681        -0.160481        -1.570587
 H         4.435829        -1.370726        -0.250123
 H         2.585555        -2.762569        -1.172354
 H         1.890832        -0.714948         1.954842
