19
Iteration:  3068charge 0 multiplicity 1
 C        -0.063452         0.211681        -0.290868
 C         1.512293         0.118568        -0.025395
 C         2.409281         1.277655        -0.004012
 C         3.513378         0.402280         0.613953
 O         4.561848         0.993412         1.195299
 C         3.674402        -0.730847        -0.631872
 C         2.253062        -1.128295        -0.300353
 O         1.626635        -2.163244        -0.943628
 C         2.158606        -0.594789         1.156390
 H        -0.458477         0.740829         0.512307
 H        -0.208871         0.618359        -1.323148
 H        -0.747171        -0.710367        -0.338642
 H         2.446067         1.875760        -1.034068
 H         2.020911         1.909972         0.802238
 H         4.059911         1.814667         1.607443
 H         3.785664        -0.375401        -1.656960
 H         4.253409        -1.557398        -0.261586
 H         1.000173        -1.824043        -1.587252
 H         1.669351        -1.024254         2.159285
