19
Iteration:  2910charge 0 multiplicity 1
 C        -0.015651         0.183573        -0.231873
 C         1.476005         0.113131         0.069686
 C         2.348034         1.369504        -0.034491
 C         3.390879         0.426015         0.597210
 O         4.586331         0.865810         1.185880
 C         3.660529        -0.610230        -0.546300
 C         2.243239        -1.168244        -0.414258
 O         1.635145        -2.195714        -0.991618
 C         2.169793        -0.559805         1.152696
 H        -0.623100         0.880324         0.401967
 H        -0.083749         0.230799        -1.275942
 H        -0.366954        -0.794373         0.000516
 H         2.651621         1.752088        -0.969902
 H         2.171718         2.153289         0.754567
 H         4.278038         1.824475         1.453965
 H         3.885462        -0.318885        -1.536118
 H         4.322895        -1.354046        -0.155871
 H         1.436294        -1.873223        -1.903281
 H         1.826458        -0.847148         2.129340
