19
Iteration:  2255
 C        -0.100311         0.329855        -0.224283
 C         1.354548         0.178593        -0.052524
 C         2.407758         1.326649        -0.069544
 C         3.480961         0.311815         0.553747
 O         4.380272         0.994173         1.356154
 C         3.755398        -0.613984        -0.646078
 C         2.330066        -1.139214        -0.431069
 O         1.692182        -2.293070        -0.896373
 C         2.202855        -0.567868         0.977285
 H        -0.416287         0.856840         0.695244
 H        -0.473902         1.098211        -0.878284
 H        -0.499492        -0.638086        -0.327172
 H         2.783272         1.795886        -0.978705
 H         2.049762         2.174183         0.627332
 H         5.011095         0.396574         1.755882
 H         3.860566        -0.265942        -1.688055
 H         4.431041        -1.396949        -0.503959
 H         1.274030        -2.760979        -0.122826
 H         1.955982        -0.955396         1.886067
