19
Iteration:  1441
 C        -0.063846         0.304999        -0.022585
 C         1.447255         0.180463        -0.013540
 C         2.437189         1.281786        -0.130011
 C         3.484213         0.332984         0.515126
 O         4.377373         0.946777         1.393853
 C         3.706152        -0.600794        -0.716757
 C         2.252727        -1.115915        -0.456544
 O         1.650221        -2.256655        -0.891703
 C         2.271179        -0.657141         1.026909
 H        -0.425044         1.102569         0.561237
 H        -0.389696         0.827094        -0.870014
 H        -0.582746        -0.570251         0.029535
 H         2.703914         1.490503        -1.225886
 H         2.171019         2.118388         0.490536
 H         3.876184         1.653835         1.764848
 H         3.979115        -0.153515        -1.659954
 H         4.411960        -1.397089        -0.493270
 H         1.628024        -2.286371        -1.876994
 H         2.080978        -1.121316         1.940111
