19
Iteration:  3660
 C        -0.090906         0.251083        -0.138570
 C         1.400887         0.271580        -0.011331
 C         2.433553         1.375417        -0.187978
 C         3.450255         0.360121         0.472721
 O         4.451809         0.849862         1.386810
 C         3.736731        -0.661774        -0.617754
 C         2.271745        -1.055158        -0.391611
 O         1.672447        -2.306294        -0.929547
 C         2.306479        -0.583913         0.999071
 H        -0.701063         0.681200         0.665182
 H        -0.409456         0.895320        -1.048030
 H        -0.430904        -0.896045        -0.242865
 H         2.321299         1.799491        -1.286823
 H         2.181615         2.188510         0.519896
 H         4.058393         1.497574         1.928428
 H         3.988210        -0.207069        -1.566511
 H         4.376566        -1.505585        -0.271418
 H         0.828979        -2.236084        -0.469402
 H         2.017026        -0.979464         2.074263
