19
Iteration:  3559charge 0 multiplicity 1
 C        -0.009127         0.087476        -0.295619
 C         1.400747         0.156481         0.064297
 C         2.411738         1.395028        -0.045237
 C         3.430192         0.394556         0.540939
 O         4.561201         0.844979         1.301440
 C         3.711819        -0.610018        -0.643826
 C         2.283601        -1.085877        -0.394752
 O         1.475886        -2.169844        -0.831128
 C         2.277233        -0.523939         1.036997
 H        -0.537486         0.925388         0.264672
 H        -0.087383         0.245439        -1.428360
 H        -0.640538        -0.886742         0.071242
 H         2.621947         1.849238        -1.068482
 H         2.040867         2.204321         0.677407
 H         4.318100         1.679814         1.789445
 H         3.922517        -0.148994        -1.635898
 H         4.403677        -1.419854        -0.353747
 H         1.634544        -2.532681        -1.731670
 H         1.968375        -1.054751         1.863598
