19
Iteration:  3955
 C        -0.065389         0.128841        -0.247625
 C         1.414905         0.234472        -0.015257
 C         2.373504         1.505032        -0.127923
 C         3.419875         0.439804         0.550798
 O         4.574220         0.738794         1.225648
 C         3.670239        -0.690597        -0.559462
 C         2.198033        -0.997849        -0.403278
 O         1.677765        -2.258442        -0.799633
 C         2.161597        -0.468507         1.011127
 H        -0.611124         0.684834         0.510100
 H        -0.344561         0.436201        -1.260356
 H        -0.585257        -0.923752        -0.230084
 H         2.771794         1.956528        -0.993722
 H         2.056936         2.248754         0.673970
 H         4.368027         0.900054         2.190962
 H         4.024525        -0.492185        -1.628548
 H         4.237647        -1.388498         0.038518
 H         2.309043        -2.484432        -1.531246
 H         1.979724        -1.006027         2.030190
