19
Iteration:  2166charge 0 multiplicity 1
 C         0.014425         0.070520        -0.291420
 C         1.480974         0.181915        -0.021374
 C         2.412666         1.365183        -0.090095
 C         3.487719         0.376336         0.562397
 O         4.488086         0.835408         1.370564
 C         3.712323        -0.676229        -0.600674
 C         2.204960        -1.035426        -0.346696
 O         1.493079        -2.095854        -0.952143
 C         2.194420        -0.477260         1.061859
 H        -0.680143         0.965737         0.000114
 H        -0.281606        -0.081953        -1.411333
 H        -0.359109        -0.864913         0.135842
 H         2.802310         1.774053        -0.985206
 H         2.079774         2.049732         0.767357
 H         4.550615         1.778158         1.206656
 H         3.987955        -0.299602        -1.601025
 H         4.301341        -1.508511        -0.280993
 H         2.110714        -2.862507        -0.763439
 H         2.005130        -1.008289         2.070473
