19
Iteration:   338charge 0 multiplicity 1
 C        -0.189995         0.116182        -0.165383
 C         1.344307         0.069719         0.094192
 C         2.249650         1.295539         0.013177
 C         3.499321         0.407369         0.538683
 O         4.617313         0.799686         1.262277
 C         3.671424        -0.565071        -0.592022
 C         2.222075        -1.016166        -0.360167
 O         1.619981        -2.050900        -1.055472
 C         2.344655        -0.543291         1.110609
 H        -0.631129         1.087599         0.197798
 H        -0.329207         0.246181        -1.319673
 H        -0.724162        -0.838606         0.146562
 H         2.478629         1.656134        -1.026562
 H         2.181435         2.290087         0.630608
 H         5.107940         1.284036         0.592226
 H         3.909824        -0.165123        -1.724919
 H         4.338754        -1.385012        -0.225463
 H         2.368198        -2.632000        -1.144985
 H         2.112939        -1.262252         2.021438
