19
Iteration:  1045charge 0 multiplicity 1
 C        -0.088214         0.353743        -0.089120
 C         1.346667         0.103979         0.027291
 C         2.286217         1.300939         0.134101
 C         3.436500         0.379883         0.577450
 O         4.474388         0.980947         1.178412
 C         3.652558        -0.572965        -0.644263
 C         2.234001        -1.013727        -0.532656
 O         1.886024        -2.350135        -0.964399
 C         2.220537        -0.667014         1.001427
 H        -0.469641         1.112410         0.609976
 H        -0.236102         0.898302        -1.056712
 H        -0.705256        -0.606154        -0.028449
 H         2.520455         2.141263        -0.740135
 H         1.950804         1.868734         1.002681
 H         5.162228         0.293767         1.438864
 H         4.053075        -0.082826        -1.575647
 H         4.376644        -1.372146        -0.332052
 H         0.965197        -2.285421        -1.206238
 H         1.875122        -1.250793         1.884805
