19
Iteration:  4603
 C        -0.089548         0.034052        -0.235049
 C         1.438772         0.224424        -0.034109
 C         2.353179         1.408071         0.008877
 C         3.436923         0.397623         0.483740
 O         4.597675         0.767806         1.324288
 C         3.739260        -0.581376        -0.596589
 C         2.251603        -1.010881        -0.493774
 O         1.579655        -2.179452        -0.789567
 C         2.236982        -0.557002         0.960326
 H        -0.744312         0.265516         0.667800
 H        -0.558121         0.605391        -1.080954
 H        -0.243034        -0.979203        -0.530800
 H         2.525369         2.015581        -0.913645
 H         1.943214         2.137186         0.837261
 H         4.294572         1.629995         1.637264
 H         4.289221        -0.256748        -1.410163
 H         4.298268        -1.244005        -0.005487
 H         1.221061        -2.110509        -1.699743
 H         2.048973        -1.030457         1.942574
