19
Iteration:   474charge 0 multiplicity 1
 C        -0.065173         0.160435        -0.240603
 C         1.431246         0.139200         0.042946
 C         2.382521         1.407715         0.098232
 C         3.442598         0.364718         0.613791
 O         4.509308         1.015197         1.224330
 C         3.664600        -0.608639        -0.619803
 C         2.250785        -1.064644        -0.412970
 O         1.499350        -2.188552        -1.000849
 C         2.315717        -0.678727         1.057133
 H        -0.508372         0.758784         0.590079
 H        -0.385110         0.681792        -1.150045
 H        -0.473051        -0.818692        -0.216507
 H         2.518671         1.853294        -0.953748
 H         2.061302         2.100807         0.821445
 H         5.384451         0.784506         0.782961
 H         4.047330        -0.037236        -1.577183
 H         4.440308        -1.355688        -0.359199
 H         2.056848        -2.977141        -0.738705
 H         1.953359        -1.418284         1.879152
