19
Iteration:   542charge 0 multiplicity 1
 C        -0.085599         0.088492        -0.075264
 C         1.436448         0.173558         0.015916
 C         2.388225         1.397419        -0.051076
 C         3.442968         0.380549         0.543915
 O         4.531641         0.780638         1.261910
 C         3.599447        -0.465621        -0.763949
 C         2.234455        -1.043921        -0.414999
 O         1.714145        -2.188243        -0.967119
 C         2.178107        -0.505520         1.101524
 H        -0.509342         0.974571         0.420254
 H        -0.472433         0.202762        -1.094734
 H        -0.479226        -0.810769         0.379230
 H         2.727085         1.718628        -1.057769
 H         2.146802         2.187866         0.650384
 H         4.599894         0.191625         2.065203
 H         3.657013         0.074251        -1.772657
 H         4.538275        -1.086491        -0.740903
 H         2.282962        -2.939719        -0.821357
 H         1.560478        -0.855456         2.095244
