19
Iteration:   426charge 0 multiplicity 1
 C        -0.128467         0.119758        -0.018093
 C         1.340542         0.192987        -0.030998
 C         2.351012         1.501742        -0.118470
 C         3.290213         0.455472         0.458023
 O         4.470403         0.633328         1.330840
 C         3.712707        -0.527730        -0.685841
 C         2.312623        -0.976983        -0.380205
 O         1.747000        -2.165601        -0.905202
 C         2.255859        -0.530425         0.998561
 H        -0.653680         0.448489         0.876008
 H        -0.557562         0.841548        -0.749002
 H        -0.318884        -0.963317        -0.304891
 H         2.619487         1.799547        -1.124539
 H         1.916564         2.253141         0.618049
 H         5.196809         0.148118         0.948083
 H         4.011891        -0.252392        -1.697969
 H         4.403943        -1.264094        -0.277232
 H         2.316959        -2.851978        -0.580142
 H         2.276259        -1.023666         1.923459
