19
Iteration:  2793
 C        -0.117965         0.219219        -0.068748
 C         1.383123         0.166339        -0.034167
 C         2.388211         1.409244        -0.090143
 C         3.419235         0.356929         0.554019
 O         4.422167         0.891660         1.299998
 C         3.711587        -0.687246        -0.502789
 C         2.223047        -1.023518        -0.418106
 O         1.791238        -2.228799        -0.948703
 C         2.209960        -0.560185         0.992905
 H        -0.398057         0.863484         0.701080
 H        -0.302553         0.445731        -1.128574
 H        -0.450380        -0.778766         0.122829
 H         2.735002         1.702971        -1.133701
 H         2.104843         2.185589         0.564637
 H         5.237837         0.902221         0.659278
 H         3.979190        -0.386317        -1.538141
 H         4.142921        -1.525412         0.050217
 H         1.483335        -2.196838        -1.863161
 H         1.757522        -0.955934         1.875136
