19
Iteration:  1065
 C        -0.145464         0.309762        -0.055472
 C         1.382532         0.083680        -0.013581
 C         2.366597         1.243129        -0.020032
 C         3.438976         0.346716         0.526759
 O         4.441953         1.082212         1.401615
 C         3.699100        -0.649661        -0.741100
 C         2.239139        -1.065866        -0.395590
 O         1.738527        -2.256790        -0.993618
 C         2.293939        -0.653616         1.013877
 H        -0.420597         0.986939         0.818950
 H        -0.488463         0.832743        -0.983269
 H        -0.763510        -0.669279         0.115967
 H         2.414701         1.756230        -0.995672
 H         2.121479         2.036677         0.709861
 H         5.334967         0.667257         1.185130
 H         3.987965        -0.120016        -1.686502
 H         4.525206        -1.367228        -0.556894
 H         1.195134        -1.918896        -1.740499
 H         2.218794        -1.350805         1.949880
