19
Iteration:  1988charge 0 multiplicity 1
 C        -0.008223         0.295593        -0.258745
 C         1.419234         0.168900         0.073599
 C         2.340603         1.271042        -0.077374
 C         3.379670         0.357974         0.538496
 O         4.511829         0.872172         1.179374
 C         3.760826        -0.664217        -0.455356
 C         2.241219        -1.142277        -0.362502
 O         1.701919        -2.194759        -1.079228
 C         2.204179        -0.528320         1.138248
 H        -0.495435         1.014022         0.427794
 H        -0.139856         0.629365        -1.351458
 H        -0.760420        -0.546711        -0.094902
 H         2.617571         1.645990        -1.013878
 H         2.172004         2.116238         0.623245
 H         4.261929         1.455111         1.924336
 H         4.105387        -0.512104        -1.440324
 H         4.498482        -1.338908         0.037891
 H         0.719053        -2.100316        -0.891894
 H         1.871895        -0.882157         2.128343
