19
Iteration:   919
 C        -0.049736         0.193597         0.045299
 C         1.404042         0.160814         0.108063
 C         2.360729         1.337490        -0.001798
 C         3.475477         0.347779         0.535381
 O         4.459084         1.010245         1.188889
 C         3.672476        -0.607454        -0.605910
 C         2.219296        -1.114104        -0.386585
 O         1.724935        -2.132051        -1.236587
 C         2.147237        -0.672481         1.112451
 H        -0.372966         0.864673         0.906563
 H        -0.388885         0.524261        -0.964730
 H        -0.558569        -0.728865         0.209610
 H         2.413851         1.807336        -1.011302
 H         1.997020         2.184019         0.758742
 H         4.977928         0.396582         1.678278
 H         3.765984        -0.275224        -1.645388
 H         4.512764        -1.309022        -0.373448
 H         2.476178        -2.742813        -1.367033
 H         1.785961        -1.080317         1.995893
