19
Iteration:  1018charge 0 multiplicity 1
 C        -0.158506         0.257420        -0.223331
 C         1.313028         0.241668         0.049430
 C         2.261057         1.465006         0.199787
 C         3.401200         0.435140         0.549751
 O         4.571714         0.771933         1.152741
 C         3.581601        -0.522352        -0.729194
 C         2.356138        -1.137113        -0.337321
 O         1.921278        -2.314054        -1.018628
 C         2.165032        -0.605913         1.023340
 H        -0.695056         0.862346         0.586677
 H        -0.379311         0.754638        -1.187169
 H        -0.599113        -0.744318        -0.186166
 H         2.510632         2.138326        -0.519710
 H         2.010508         2.177559         1.063427
 H         5.083515         0.025567         1.560943
 H         3.765218        -0.093983        -1.703862
 H         4.524350        -1.107588        -0.612198
 H         1.144693        -2.511923        -0.494992
 H         2.033059        -1.005801         2.064516
