19
Iteration:   778
 C        -0.108094         0.138436        -0.028163
 C         1.406112         0.111858        -0.032636
 C         2.333460         1.357678         0.138700
 C         3.451107         0.368014         0.622128
 O         4.531652         1.022678         1.175561
 C         3.691968        -0.639751        -0.627375
 C         2.210580        -1.075372        -0.420776
 O         1.730448        -2.137762        -1.186353
 C         2.168025        -0.622480         1.102537
 H        -0.280281         0.686392         0.935510
 H        -0.506467         0.645248        -0.926068
 H        -0.685886        -0.760854        -0.086689
 H         2.496626         2.000589        -0.760614
 H         1.983230         1.882110         1.069867
 H         5.321915         0.546613         1.013013
 H         3.774936        -0.097499        -1.556223
 H         4.387965        -1.519881        -0.470650
 H         2.236419        -2.950459        -1.065576
 H         1.551355        -0.811848         2.074236
