19
Iteration:  1250charge 0 multiplicity 1
 C        -0.184878        -0.034120         0.005130
 C         1.331323         0.249259        -0.051720
 C         2.378231         1.492539        -0.167886
 C         3.433220         0.492457         0.478695
 O         4.595637         0.633974         1.316208
 C         3.663917        -0.597713        -0.526602
 C         2.270950        -1.051339        -0.372519
 O         1.701210        -2.247699        -0.998785
 C         2.236399        -0.350951         1.031122
 H        -0.762663         0.338235         0.846870
 H        -0.586863         0.321643        -0.868063
 H        -0.261694        -1.173834        -0.023133
 H         2.777804         1.980430        -1.166961
 H         2.148863         2.424058         0.497865
 H         4.634997         1.597019         1.657324
 H         4.113547        -0.442043        -1.504581
 H         4.379957        -1.273240        -0.080115
 H         1.689385        -2.172267        -1.955748
 H         1.880879        -0.758317         1.881735
