19
Iteration:  4748
 C        -0.082717        -0.041586        -0.329803
 C         1.401635         0.202410        -0.000596
 C         2.347167         1.376925         0.033380
 C         3.443853         0.445317         0.508219
 O         4.498036         0.632230         1.315242
 C         3.657332        -0.545569        -0.693968
 C         2.323095        -0.984543        -0.366812
 O         1.650424        -2.101970        -0.852939
 C         2.286268        -0.447370         1.087492
 H        -0.729537         0.218516         0.533017
 H        -0.611421         0.535795        -1.099229
 H        -0.371495        -1.176944        -0.395787
 H         2.404959         1.860237        -0.933546
 H         1.973736         2.259533         0.674187
 H         4.660929         1.634341         1.595601
 H         4.029793        -0.062548        -1.498264
 H         4.382647        -1.297426        -0.332724
 H         1.416743        -2.030147        -1.783705
 H         2.264378        -1.066957         2.112314
