19
Iteration:  1568charge 0 multiplicity 1
 C        -0.081107         0.285147        -0.154533
 C         1.387804         0.172415        -0.075785
 C         2.406904         1.284156        -0.043078
 C         3.443653         0.278824         0.569290
 O         4.473022         0.918382         1.257174
 C         3.838728        -0.635361        -0.617702
 C         2.293902        -1.061345        -0.443206
 O         1.569508        -2.122534        -0.870381
 C         2.204241        -0.640358         1.021630
 H        -0.508758         0.849264         0.579772
 H        -0.296748         0.508012        -1.173715
 H        -0.763770        -0.580218        -0.069074
 H         2.661715         1.836492        -0.940513
 H         1.878334         2.083161         0.620689
 H         4.003023         1.301565         2.057789
 H         4.035181        -0.143139        -1.590533
 H         4.441907        -1.469753        -0.265008
 H         2.134569        -2.767460        -1.273836
 H         2.116691        -1.121063         1.902021
