19
Iteration:  2684charge 0 multiplicity 1
 C        -0.023123         0.279922        -0.226564
 C         1.355133         0.228896        -0.023903
 C         2.292422         1.421497        -0.040716
 C         3.387489         0.395112         0.528069
 O         4.516272         0.734051         1.239932
 C         3.705030        -0.481375        -0.674403
 C         2.275379        -1.101383        -0.439551
 O         1.797979        -2.336063        -0.694957
 C         2.175339        -0.546088         0.940244
 H        -0.365274         0.844953         0.648657
 H        -0.448957         0.735901        -1.179064
 H        -0.550043        -0.694905        -0.027494
 H         2.569608         2.175339        -0.907441
 H         1.940095         1.956745         0.879188
 H         4.301808         0.576172         2.157989
 H         3.954289        -0.084052        -1.694059
 H         4.490004        -1.289363        -0.467711
 H         1.758251        -2.431570        -1.640084
 H         1.629303        -1.091160         1.871776
