19
Iteration:    19
 C        -0.025531         0.102043        -0.046043
 C         1.401193         0.232905         0.052465
 C         2.412924         1.348278         0.095924
 C         3.419333         0.366040         0.490995
 O         4.476658         0.825415         1.228985
 C         3.692797        -0.477395        -0.753189
 C         2.203259        -0.980238        -0.537919
 O         1.533769        -2.248264        -0.834425
 C         2.355226        -0.647957         0.944413
 H        -0.629613         0.493692         0.806264
 H        -0.478325         0.675132        -0.937125
 H        -0.236581        -0.980612        -0.150008
 H         2.560663         2.073054        -0.720660
 H         2.198687         2.137965         0.945079
 H         4.212412         1.725338         1.407269
 H         4.118277         0.042789        -1.683499
 H         4.276347        -1.310211        -0.248244
 H         2.204998        -2.598260        -1.405021
 H         2.401015        -1.391099         1.829059
