19
Iteration:  3777charge 0 multiplicity 1
 C        -0.010474         0.278096        -0.237888
 C         1.451046         0.204574        -0.128208
 C         2.370297         1.398144        -0.070420
 C         3.412243         0.365123         0.563013
 O         4.501109         0.782222         1.304064
 C         3.672501        -0.556027        -0.605854
 C         2.231627        -1.073343        -0.438189
 O         1.712153        -2.361299        -0.720180
 C         2.223341        -0.561875         0.930797
 H        -0.304270         1.252957         0.266983
 H        -0.260062         0.556386        -1.286295
 H        -0.691336        -0.538814         0.143156
 H         2.482075         1.955548        -0.955978
 H         1.874217         2.076792         0.685914
 H         4.183500         1.427411         1.972367
 H         4.002123        -0.133872        -1.625881
 H         4.476450        -1.324960        -0.353928
 H         0.874220        -2.250112        -1.211815
 H         2.065607        -0.996560         1.984545
