19
Iteration:  3681charge 0 multiplicity 1
 C        -0.000837         0.076443        -0.221979
 C         1.426053         0.197206        -0.067002
 C         2.427847         1.380710        -0.071939
 C         3.451391         0.412602         0.513443
 O         4.509457         0.881416         1.339249
 C         3.729413        -0.709597        -0.648792
 C         2.174821        -1.056722        -0.345785
 O         1.574052        -2.175749        -0.968690
 C         2.272972        -0.495815         1.041926
 H        -0.510491         0.597036         0.570195
 H        -0.271273         0.676126        -1.076480
 H        -0.424865        -0.972380        -0.076848
 H         3.026953         1.796938        -0.976799
 H         1.937652         2.197753         0.560232
 H         4.207020         1.728395         1.849581
 H         4.076633        -0.413838        -1.645220
 H         4.319718        -1.471337        -0.096024
 H         0.970017        -2.654315        -0.344493
 H         1.868819        -1.002026         2.017324
