19
Iteration:  4043
 C        -0.217914         0.324727        -0.312654
 C         1.365837         0.215284        -0.085550
 C         2.404059         1.358270        -0.067345
 C         3.508891         0.349392         0.451719
 O         4.440834         0.812079         1.471778
 C         3.675847        -0.709393        -0.706153
 C         2.279895        -1.044519        -0.339463
 O         1.812380        -2.311736        -0.807990
 C         2.281495        -0.499036         1.024279
 H        -0.437066         1.045278         0.457953
 H        -0.478198         0.642575        -1.334728
 H        -0.699576        -0.675539        -0.019925
 H         2.534404         1.956705        -0.977944
 H         2.067681         2.054957         0.788076
 H         4.921012         1.581623         1.094363
 H         3.761831        -0.436754        -1.757985
 H         4.324068        -1.520047        -0.452256
 H         0.839208        -2.138527        -0.744923
 H         1.860258        -1.031597         1.875045
