19
Iteration:   125charge 0 multiplicity 1
 C        -0.034844         0.173458        -0.027148
 C         1.420710         0.164256         0.029229
 C         2.290520         1.356997         0.120370
 C         3.411250         0.439860         0.513159
 O         4.537142         0.902992         1.207392
 C         3.691007        -0.542099        -0.719206
 C         2.254472        -1.056859        -0.496563
 O         1.581864        -2.205312        -0.950111
 C         2.279714        -0.647359         0.952817
 H        -0.522934         1.021593         0.483681
 H        -0.475831         0.161269        -1.029366
 H        -0.303263        -0.775062         0.462432
 H         2.505933         1.941273        -0.836551
 H         1.960425         2.058854         0.876927
 H         4.924480         0.365786         1.885171
 H         4.096124        -0.043175        -1.683536
 H         4.412712        -1.269651        -0.225435
 H         2.189438        -2.799794        -1.371776
 H         1.861475        -1.046082         1.959074
