19
Iteration:  2674
 C        -0.128943         0.293821        -0.158358
 C         1.434135         0.194905        -0.087706
 C         2.326857         1.406425        -0.005354
 C         3.362240         0.427040         0.482483
 O         4.479427         0.718491         1.225677
 C         3.748988        -0.547061        -0.666689
 C         2.320607        -1.055838        -0.399692
 O         1.803233        -2.318209        -0.746484
 C         2.133528        -0.581560         0.975411
 H        -0.533405         0.946320         0.668800
 H        -0.431517         0.868529        -1.119223
 H        -0.644233        -0.764376        -0.158160
 H         2.557398         1.981445        -1.014903
 H         2.059252         2.175246         0.833448
 H         4.333229         0.915241         2.113658
 H         3.927480         0.031789        -1.613745
 H         4.565769        -1.286943        -0.311582
 H         1.783377        -2.550749        -1.682769
 H         1.808785        -0.953598         2.053831
