19
Iteration:  4879charge 0 multiplicity 1
 C        -0.073228        -0.015783        -0.211728
 C         1.414723         0.273454        -0.046419
 C         2.407201         1.471967         0.012808
 C         3.449152         0.412116         0.532970
 O         4.549432         0.753632         1.336375
 C         3.691028        -0.536126        -0.573059
 C         2.238762        -1.050455        -0.490119
 O         1.670150        -2.238052        -0.878843
 C         2.176135        -0.492106         0.962369
 H        -0.665586         0.713956         0.301444
 H        -0.346835        -0.145064        -1.247573
 H        -0.270730        -1.042719         0.272703
 H         2.685809         1.937050        -0.901736
 H         2.100205         2.157608         0.824364
 H         4.304027         1.166752         2.207237
 H         3.908059        -0.013001        -1.619502
 H         4.492161        -1.373793        -0.464186
 H         1.115845        -1.923210        -1.606262
 H         1.837023        -1.055137         1.789918
