19
Iteration:  2787charge 0 multiplicity 1
 C        -0.121439         0.178078        -0.078370
 C         1.408500         0.189275        -0.069371
 C         2.400359         1.367362        -0.068370
 C         3.418090         0.349506         0.557580
 O         4.439909         0.930836         1.282690
 C         3.686236        -0.721686        -0.531296
 C         2.261129        -1.059052        -0.423859
 O         1.772449        -2.196197        -0.962490
 C         2.159047        -0.536191         1.066659
 H        -0.499049         1.016458         0.633536
 H        -0.422404         0.483598        -1.094597
 H        -0.523405        -0.862816         0.164879
 H         2.599645         1.816658        -1.032778
 H         2.260882         2.297310         0.599412
 H         5.232827         0.931708         0.743825
 H         4.279557        -0.364382        -1.418640
 H         4.254172        -1.591902        -0.105123
 H         1.439127        -2.199811        -1.900384
 H         1.747823        -1.057095         1.974715
