19
Iteration:  3023
 C        -0.122051         0.306421        -0.252483
 C         1.293658         0.216270        -0.018973
 C         2.324731         1.411296         0.008238
 C         3.366716         0.424988         0.509057
 O         4.601819         0.690469         1.238817
 C         3.724137        -0.577600        -0.658545
 C         2.250337        -1.038164        -0.410196
 O         1.782938        -2.312817        -0.719142
 C         2.196871        -0.520896         0.962457
 H        -0.641918         0.604215         0.629435
 H        -0.388692         0.743121        -1.221435
 H        -0.518781        -0.740108        -0.366629
 H         2.583424         1.841080        -1.016547
 H         2.144117         2.194907         0.734002
 H         4.390396         1.301216         2.024775
 H         3.975561        -0.129706        -1.604380
 H         4.320277        -1.374331        -0.213939
 H         1.902676        -2.463537        -1.658025
 H         1.980916        -1.262643         1.825978
