19
Iteration:  3037charge 0 multiplicity 1
 C        -0.194190         0.253251        -0.277704
 C         1.417997         0.229188         0.033608
 C         2.339101         1.443774         0.010529
 C         3.406302         0.408367         0.579210
 O         4.566784         0.755537         1.128832
 C         3.703844        -0.560128        -0.521910
 C         2.295023        -1.069497        -0.445404
 O         1.717298        -2.335261        -0.807340
 C         2.214195        -0.623460         1.036871
 H        -0.777919         0.808500         0.403658
 H        -0.279822         0.974842        -1.152838
 H        -0.589764        -0.771279        -0.518269
 H         2.572921         1.988658        -0.960633
 H         2.078538         2.146866         0.736908
 H         4.542284         1.485000         1.691522
 H         4.307321        -0.293585        -1.418111
 H         4.378508        -1.295486        -0.079449
 H         1.483396        -2.335648        -1.772180
 H         1.868496        -0.992205         2.063827
