19
Iteration:  2168
 C         0.028923         0.071020        -0.292947
 C         1.472768         0.189989        -0.029928
 C         2.401625         1.365269        -0.090185
 C         3.468504         0.352492         0.552239
 O         4.500960         0.834017         1.373627
 C         3.696952        -0.660312        -0.600513
 C         2.182879        -1.035461        -0.353968
 O         1.505893        -2.106035        -0.947499
 C         2.200502        -0.469180         1.083854
 H        -0.714505         0.985086         0.032492
 H        -0.169394        -0.092880        -1.395211
 H        -0.346950        -0.854580         0.103813
 H         2.811619         1.753502        -0.981466
 H         2.069647         2.040978         0.702595
 H         4.659849         1.749663         1.274085
 H         3.999077        -0.280038        -1.621890
 H         4.294896        -1.463263        -0.245577
 H         2.130935        -2.845842        -0.806891
 H         2.033422        -0.971622         2.019053
