19
Iteration:  3406
 C        -0.052888         0.112376        -0.224294
 C         1.396255         0.159440        -0.036409
 C         2.377955         1.392826        -0.111501
 C         3.410433         0.363724         0.544504
 O         4.549374         0.834160         1.211996
 C         3.704171        -0.674070        -0.554289
 C         2.293038        -1.106101        -0.380939
 O         1.657422        -2.117766        -0.903250
 C         2.211197        -0.540924         1.066240
 H        -0.574172         0.758118         0.468038
 H        -0.300025         0.606984        -1.155376
 H        -0.435381        -0.962383        -0.138964
 H         2.798659         2.122032        -0.966879
 H         2.077465         2.110231         0.736685
 H         4.300568         1.401014         2.039103
 H         4.279630        -0.292341        -1.427654
 H         4.278329        -1.466547        -0.061118
 H         0.713048        -1.974830        -1.085854
 H         1.791230        -0.827717         2.122043
