19
Iteration:  4401
 C        -0.125613         0.302727        -0.333320
 C         1.383024         0.163487        -0.018461
 C         2.329572         1.410400         0.062732
 C         3.444645         0.460622         0.504575
 O         4.504947         0.899467         1.300497
 C         3.721781        -0.614477        -0.603165
 C         2.245065        -1.104218        -0.371431
 O         1.726287        -2.439922        -0.852511
 C         2.219600        -0.603083         1.063831
 H        -0.490703         0.893625         0.511970
 H        -0.202055         1.098489        -1.085814
 H        -1.020668        -0.410527        -0.510421
 H         2.532803         2.115365        -0.851801
 H         2.167255         2.043044         0.937168
 H         5.324250         1.001781         0.662322
 H         4.073073        -0.252546        -1.533731
 H         4.481306        -1.396219        -0.313372
 H         1.132770        -2.207212        -1.578785
 H         1.998207        -1.006581         2.065010
