19
Iteration:  1574charge 0 multiplicity 1
 C        -0.071191         0.309127        -0.129201
 C         1.431193         0.190192        -0.109796
 C         2.397744         1.287832        -0.037236
 C         3.389742         0.242734         0.518422
 O         4.471441         0.920077         1.252408
 C         3.734112        -0.655837        -0.596999
 C         2.289485        -1.028942        -0.404241
 O         1.655033        -2.161682        -0.872225
 C         2.175041        -0.627699         1.004314
 H        -0.531953         1.024047         0.703364
 H        -0.447639         0.653091        -1.155551
 H        -0.581592        -0.661762         0.032357
 H         2.835092         1.850817        -0.928087
 H         1.986390         1.971447         0.666432
 H         4.082249         1.319226         1.989882
 H         4.142649        -0.087112        -1.446832
 H         4.442063        -1.467356        -0.329154
 H         2.220453        -2.705835        -1.448469
 H         1.985520        -1.209483         2.003868
