19
Iteration:  2006charge 0 multiplicity 1
 C         0.006481         0.226066        -0.332013
 C         1.447645         0.130813        -0.012497
 C         2.380356         1.413053        -0.035673
 C         3.458701         0.412853         0.615934
 O         4.527531         0.934924         1.243871
 C         3.682539        -0.746951        -0.555617
 C         2.233677        -1.117582        -0.330012
 O         1.588772        -2.179461        -0.957446
 C         2.258170        -0.642917         1.096525
 H        -0.516303         0.735827         0.444187
 H         0.001536         0.742767        -1.283667
 H        -0.456701        -0.770746        -0.621123
 H         2.642279         1.782455        -1.144508
 H         1.931121         2.160239         0.616348
 H         4.158860         1.617393         1.828519
 H         4.044415        -0.295765        -1.542872
 H         4.300270        -1.548101        -0.147186
 H         0.628975        -1.952798        -1.123125
 H         2.113109        -1.236327         2.149783
