19
Iteration:  3207charge 0 multiplicity 1
 C        -0.040383         0.339421        -0.309983
 C         1.367497         0.204687         0.015717
 C         2.332503         1.346552        -0.028572
 C         3.409422         0.363651         0.543396
 O         4.548607         0.896290         1.203164
 C         3.733473        -0.627342        -0.571735
 C         2.286856        -1.070472        -0.367330
 O         1.602894        -2.305918        -0.810208
 C         2.275001        -0.670647         1.065852
 H        -0.661109         0.592712         0.595070
 H        -0.126665         0.961425        -1.143010
 H        -0.295350        -0.670595        -0.668353
 H         2.660626         1.746145        -0.939212
 H         2.004109         2.150779         0.661701
 H         4.217940         1.639468         1.645756
 H         3.891912        -0.204990        -1.586743
 H         4.346247        -1.485178        -0.200571
 H         1.452347        -2.194739        -1.759058
 H         2.028535        -1.188038         2.063052
