19
Iteration:  2032charge 0 multiplicity 1
 C        -0.111132         0.212856        -0.384256
 C         1.404229         0.165671        -0.041269
 C         2.465946         1.327664         0.024978
 C         3.480290         0.377175         0.575031
 O         4.528491         0.818022         1.305125
 C         3.739043        -0.601894        -0.693751
 C         2.278726        -1.097862        -0.412733
 O         1.589966        -2.229077        -0.716357
 C         2.163795        -0.512720         1.037065
 H        -0.725071         0.311128         0.544590
 H        -0.269107         0.890111        -1.317747
 H        -0.429082        -0.874526        -0.831338
 H         2.672865         1.941245        -0.838684
 H         2.179458         2.035922         0.882074
 H         4.246395         1.686593         1.710406
 H         4.074885        -0.074731        -1.552861
 H         4.477588        -1.441350        -0.515481
 H         1.160032        -2.043467        -1.621220
 H         1.981554        -0.883031         1.987724
