19
Iteration:  2704
 C        -0.131042         0.210783        -0.305293
 C         1.362818         0.213096        -0.070528
 C         2.357052         1.435574         0.041487
 C         3.468592         0.493446         0.532968
 O         4.541752         0.789471         1.329544
 C         3.667691        -0.518409        -0.764705
 C         2.193566        -1.093384        -0.442583
 O         1.750196        -2.326067        -0.712772
 C         2.285927        -0.556005         1.004730
 H        -0.623085         0.876060         0.342242
 H        -0.428498         0.463814        -1.342472
 H        -0.686943        -0.642206        -0.112338
 H         2.738590         1.935807        -0.893221
 H         2.033736         1.985897         0.850080
 H         4.551294         0.377291         2.275608
 H         3.764859        -0.086619        -1.770582
 H         4.316586        -1.363375        -0.584249
 H         1.357489        -2.617783        -1.535256
 H         2.168959        -1.132407         2.071854
