19
Iteration:   786
 C        -0.119187         0.172411        -0.066428
 C         1.387350         0.095107        -0.016233
 C         2.329619         1.322725         0.171807
 C         3.378850         0.364915         0.567480
 O         4.511085         0.954559         1.154282
 C         3.653932        -0.634742        -0.604132
 C         2.263700        -1.091776        -0.378086
 O         1.748966        -2.074226        -1.156857
 C         2.230265        -0.590459         1.088316
 H        -0.585491         0.547570         0.862612
 H        -0.511119         0.762200        -0.939801
 H        -0.426743        -0.911571        -0.091641
 H         2.602288         1.976377        -0.647529
 H         1.864898         2.135124         0.855890
 H         5.231635         0.485771         0.794949
 H         3.872996        -0.196268        -1.568119
 H         4.484448        -1.311143        -0.402148
 H         2.293312        -2.882667        -1.041412
 H         1.827279        -0.909807         2.174543
