19
Iteration:   999charge 0 multiplicity 1
 C        -0.108353         0.135454        -0.236162
 C         1.360808         0.136057         0.015791
 C         2.307064         1.392405         0.098955
 C         3.448472         0.400986         0.490091
 O         4.577146         0.763984         1.329125
 C         3.568848        -0.422639        -0.774886
 C         2.177936        -1.032311        -0.384831
 O         1.809368        -2.216739        -0.962660
 C         2.310550        -0.509605         1.092820
 H        -0.748047         0.748045         0.472608
 H        -0.294741         0.702382        -1.163362
 H        -0.433914        -0.974677        -0.286989
 H         2.444303         2.120186        -0.867555
 H         2.024370         2.022516         1.023436
 H         5.029933        -0.079331         1.336833
 H         3.617435         0.121033        -1.770266
 H         4.286646        -1.284945        -0.785284
 H         1.460843        -2.983835        -0.496944
 H         1.964749        -0.915764         2.169623
