19
Iteration:  4695charge 0 multiplicity 1
 C        -0.097253         0.376651        -0.142897
 C         1.373531         0.112598        -0.042612
 C         2.277433         1.347204         0.097817
 C         3.418866         0.305895         0.538788
 O         4.494875         0.979256         1.197279
 C         3.748708        -0.641171        -0.623049
 C         2.300827        -1.111302        -0.470782
 O         1.762580        -2.272680        -0.914805
 C         2.249070        -0.647201         1.000620
 H        -0.345809         1.372784         0.176931
 H        -0.346058         0.315851        -1.209280
 H        -0.893754        -0.351135         0.237372
 H         2.639217         2.130811        -0.589570
 H         1.741849         1.803369         1.024419
 H         4.223811         1.075657         2.198672
 H         4.248246        -0.242668        -1.547162
 H         4.320325        -1.553227        -0.217568
 H         1.389540        -2.175587        -1.797930
 H         1.969817        -1.167342         2.020861
