19
Iteration:  2922
 C         0.005812         0.139864        -0.187553
 C         1.407310         0.230887         0.056846
 C         2.392469         1.334625        -0.018815
 C         3.463895         0.366460         0.536157
 O         4.551440         0.930504         1.179547
 C         3.698623        -0.658243        -0.511556
 C         2.232087        -1.054140        -0.283647
 O         1.626887        -2.262033        -1.071539
 C         2.167244        -0.601367         1.107868
 H        -0.515846         1.021724         0.302544
 H        -0.280376         0.351250        -1.199119
 H        -0.443334        -0.767891         0.132387
 H         2.551484         1.704451        -1.026082
 H         1.955464         2.176520         0.519075
 H         4.294939         1.566058         1.810358
 H         4.036633        -0.252484        -1.435276
 H         4.433074        -1.370810        -0.162421
 H         1.238742        -1.961288        -1.930224
 H         1.785402        -0.837788         1.986545
