19
Iteration:  1941
 C        -0.069840         0.318675        -0.081769
 C         1.437138         0.266139        -0.106294
 C         2.453844         1.457205        -0.077316
 C         3.375185         0.365618         0.518839
 O         4.465142         0.691393         1.329626
 C         3.699430        -0.574517        -0.586528
 C         2.169129        -1.093947        -0.461890
 O         1.871928        -2.388184        -0.926776
 C         2.143439        -0.493572         0.959719
 H        -0.617710         1.201049         0.178226
 H        -0.499873        -0.081660        -1.029587
 H        -0.634642        -0.332595         0.736894
 H         2.714991         1.912673        -1.081269
 H         2.082139         2.224156         0.598344
 H         4.333848         1.602286         1.791807
 H         4.199986        -0.009135        -1.374994
 H         4.234286        -1.467001        -0.362285
 H         0.941072        -2.559622        -0.726211
 H         1.678326        -0.871742         1.956340
