19
Iteration:  2557charge 0 multiplicity 1
 C        -0.114603         0.148936        -0.264438
 C         1.355878         0.249414        -0.057907
 C         2.428377         1.330348         0.013329
 C         3.411553         0.392218         0.538069
 O         4.455136         0.774342         1.307198
 C         3.599111        -0.475256        -0.716504
 C         2.223013        -1.003690        -0.376117
 O         1.833853        -2.268169        -0.775111
 C         2.273773        -0.571061         1.007467
 H        -0.617901         1.054025         0.050677
 H        -0.479271         0.120093        -1.224564
 H        -0.472736        -0.733599         0.311511
 H         2.690693         1.998129        -0.857966
 H         2.100402         2.090207         0.803628
 H         4.964740         0.007832         1.465504
 H         3.863017         0.100153        -1.551775
 H         4.272195        -1.347596        -0.544797
 H         1.440449        -1.971326        -1.637603
 H         1.806096        -0.839560         2.069816
