19
Iteration:  1483charge 0 multiplicity 1
 C        -0.127076         0.322824        -0.225356
 C         1.342849         0.142517        -0.037855
 C         2.239438         1.458302         0.066761
 C         3.391084         0.426082         0.625577
 O         4.693913         0.734544         1.173683
 C         3.610260        -0.593458        -0.604917
 C         2.205728        -1.062663        -0.454247
 O         1.895115        -2.372838        -0.912677
 C         2.227809        -0.510557         1.029633
 H        -0.433893         1.230710         0.478295
 H        -0.375078         0.628887        -1.320189
 H        -0.659332        -0.647572         0.123669
 H         2.476842         2.012946        -0.829060
 H         1.740886         2.122656         0.783315
 H         4.345462         1.100184         1.987810
 H         4.128784        -0.289688        -1.555598
 H         4.291337        -1.391914        -0.227786
 H         0.904877        -2.340394        -1.106760
 H         1.805195        -0.990554         1.806794
