19
Iteration:  1069charge 0 multiplicity 1
 C        -0.143368         0.282513        -0.029681
 C         1.355991         0.118869         0.007589
 C         2.383023         1.251314        -0.059223
 C         3.458620         0.372948         0.532059
 O         4.407373         1.062449         1.408118
 C         3.711565        -0.656267        -0.741420
 C         2.271684        -1.096092        -0.401372
 O         1.700669        -2.246798        -0.996293
 C         2.317254        -0.680833         1.031560
 H        -0.456227         0.981247         0.719913
 H        -0.470739         0.828773        -0.942353
 H        -0.626628        -0.669962         0.077112
 H         2.514381         1.809957        -1.143643
 H         2.150501         2.014539         0.665328
 H         5.246760         0.719867         1.158003
 H         3.901273        -0.070778        -1.661131
 H         4.550729        -1.304576        -0.491597
 H         1.289936        -1.821993        -1.781973
 H         2.222850        -1.219878         1.862793
