19
Iteration:  1853
 C        -0.067242         0.174266        -0.379502
 C         1.409618         0.134637        -0.044074
 C         2.307960         1.327855         0.097519
 C         3.463704         0.358513         0.596712
 O         4.668998         0.914624         1.093426
 C         3.599478        -0.739260        -0.468896
 C         2.212363        -1.066650        -0.303006
 O         1.706699        -2.106523        -1.021036
 C         2.186163        -0.521279         1.143242
 H        -0.554798         0.766626         0.406183
 H        -0.073671         0.719587        -1.334387
 H        -0.502302        -0.912003        -0.366738
 H         2.443804         1.884320        -0.777211
 H         1.991181         2.081295         0.734466
 H         4.758112         0.713532         2.104145
 H         4.005165        -0.391325        -1.397749
 H         4.281343        -1.443438        -0.127047
 H         0.766654        -2.287100        -1.098003
 H         1.851079        -0.645663         2.102360
