19
Iteration:  2517
 C        -0.083697         0.360418        -0.181041
 C         1.403972         0.164903        -0.016879
 C         2.296385         1.418185         0.084059
 C         3.351092         0.465321         0.494806
 O         4.502438         0.853097         1.231051
 C         3.689328        -0.507177        -0.607405
 C         2.253062        -1.101216        -0.473931
 O         1.728052        -2.376585        -0.833514
 C         2.311629        -0.654619         0.968609
 H        -0.604941         1.124402         0.425759
 H        -0.261031         0.388662        -1.386685
 H        -0.550353        -0.583178         0.023724
 H         2.497060         1.930216        -0.900413
 H         2.080897         1.989452         0.932227
 H         4.380320         0.298478         2.095082
 H         4.032298        -0.091363        -1.656612
 H         4.336938        -1.284766        -0.240014
 H         2.006001        -2.690891        -1.701371
 H         2.046788        -1.024451         1.947100
