19
Iteration:  4060charge 0 multiplicity 1
 C        -0.040256         0.259132        -0.232620
 C         1.452162         0.243552        -0.110632
 C         2.392403         1.439928        -0.070087
 C         3.370317         0.392526         0.530094
 O         4.408067         0.705081         1.398176
 C         3.635436        -0.611964        -0.677402
 C         2.176784        -1.033270        -0.422843
 O         1.836778        -2.333239        -0.757618
 C         2.184966        -0.473265         0.957824
 H        -0.623987         1.054009         0.276199
 H        -0.326001         0.384374        -1.288809
 H        -0.374089        -0.718855         0.088066
 H         2.813336         1.973023        -0.966427
 H         2.135192         2.191165         0.654413
 H         5.159152         1.063946         0.953304
 H         4.100745        -0.203956        -1.615400
 H         4.410197        -1.394354        -0.346568
 H         0.893667        -2.566706        -0.591906
 H         2.143195        -0.908561         2.020313
