19
Iteration:  3465
 C        -0.033467         0.504741        -0.145699
 C         1.400757         0.119269        -0.093421
 C         2.293647         1.330797        -0.096973
 C         3.403813         0.370916         0.505163
 O         4.495938         0.780244         1.290001
 C         3.625653        -0.634114        -0.688422
 C         2.261965        -1.120209        -0.323825
 O         1.919801        -2.360563        -0.872809
 C         2.128439        -0.524570         1.046043
 H        -0.263060         0.917239         0.802256
 H        -0.482175         0.982627        -1.023033
 H        -0.525817        -0.427597        -0.031907
 H         2.560762         1.845559        -1.068131
 H         1.990748         2.120303         0.785295
 H         4.259150         1.555015         1.773969
 H         3.925520        -0.038718        -1.559182
 H         4.381059        -1.408515        -0.410083
 H         1.007406        -2.405793        -1.159697
 H         1.849585        -1.001944         1.896050
