19
Iteration:  1446
 C        -0.080248         0.362496        -0.047080
 C         1.434650         0.160977         0.006019
 C         2.408606         1.320917        -0.103627
 C         3.465565         0.264991         0.507021
 O         4.373331         0.921130         1.336726
 C         3.718889        -0.596993        -0.719432
 C         2.320349        -1.136087        -0.426160
 O         1.701765        -2.267208        -0.887479
 C         2.261840        -0.617110         1.023458
 H        -0.431745         1.215289         0.674703
 H        -0.488106         0.852053        -1.065010
 H        -0.745152        -0.625573         0.099129
 H         2.734968         1.508788        -1.119796
 H         2.062713         2.187406         0.552504
 H         3.818127         1.570339         1.878744
 H         3.879318        -0.122585        -1.733275
 H         4.464391        -1.376925        -0.438463
 H         1.483880        -2.155246        -1.840973
 H         1.983487        -1.206035         2.044295
