19
Iteration:  4504
 C        -0.144623         0.163259        -0.103917
 C         1.394078         0.170131        -0.160466
 C         2.412452         1.403348        -0.050457
 C         3.457357         0.307437         0.557876
 O         4.447005         0.742426         1.327874
 C         3.837649        -0.576385        -0.728931
 C         2.261910        -0.986988        -0.466512
 O         1.757355        -2.221991        -0.754220
 C         2.120251        -0.470705         0.978729
 H        -0.469198         1.014776         0.578562
 H        -0.857376         0.113167        -0.983249
 H        -0.475655        -0.693172         0.408097
 H         2.693727         1.805783        -0.989074
 H         2.122109         2.160147         0.780945
 H         4.130623         1.443918         1.835998
 H         4.082163        -0.100207        -1.736762
 H         4.459322        -1.390989        -0.421592
 H         1.502370        -2.146325        -1.712593
 H         1.792876        -1.230509         1.865344
