19
Iteration:  1432
 C        -0.029811         0.275576        -0.031105
 C         1.427845         0.139381        -0.005070
 C         2.465060         1.260588        -0.167976
 C         3.453496         0.391326         0.522738
 O         4.402769         0.960629         1.445532
 C         3.716423        -0.636508        -0.683853
 C         2.194318        -1.040073        -0.452388
 O         1.582990        -2.261505        -0.904171
 C         2.307346        -0.646293         0.955472
 H        -0.341175         0.763067         0.883998
 H        -0.275922         0.615036        -1.037248
 H        -0.467676        -0.671610         0.086204
 H         2.634306         1.767235        -1.208160
 H         2.281816         2.162553         0.428401
 H         4.044458         1.797098         1.678474
 H         4.025584        -0.141589        -1.596140
 H         4.347888        -1.507967        -0.487173
 H         1.791089        -2.342393        -1.867524
 H         2.079698        -1.130365         1.928847
