19
Iteration:  4868
 C        -0.061256         0.108212        -0.158716
 C         1.412121         0.192439        -0.131210
 C         2.385859         1.400420        -0.028802
 C         3.418185         0.336018         0.585130
 O         4.534992         0.814912         1.294454
 C         3.669183        -0.583930        -0.646668
 C         2.295770        -0.998426        -0.381243
 O         1.762618        -2.187569        -0.904260
 C         2.115819        -0.536452         1.010987
 H        -0.633492         0.880037         0.325068
 H        -0.478859         0.072449        -1.158896
 H        -0.328333        -0.872780         0.376174
 H         2.605067         2.112805        -0.795729
 H         2.046446         2.004481         0.826836
 H         4.136748         0.913836         2.106800
 H         3.995600        -0.015947        -1.621353
 H         4.397317        -1.424307        -0.327043
 H         1.130716        -2.077410        -1.647025
 H         1.861596        -1.219500         1.793831
