19
Iteration:  3944charge 0 multiplicity 1
 C        -0.006376         0.147831        -0.274324
 C         1.398999         0.285091        -0.046504
 C         2.308406         1.436480        -0.104588
 C         3.378907         0.424061         0.512695
 O         4.562757         0.654286         1.276844
 C         3.623849        -0.571487        -0.630673
 C         2.246139        -1.059415        -0.346418
 O         1.694672        -2.210406        -0.731253
 C         2.219605        -0.513888         0.977988
 H        -0.468089         0.868232         0.392290
 H        -0.277583         0.543867        -1.255288
 H        -0.348135        -0.938558        -0.014610
 H         2.506435         1.729384        -1.099313
 H         1.993916         2.379533         0.428636
 H         4.361860         0.912859         2.137250
 H         4.147572        -0.209929        -1.574657
 H         4.324690        -1.323490        -0.260452
 H         2.190319        -2.690612        -1.407162
 H         1.727892        -0.730807         1.987400
