19
Iteration:  3371charge 0 multiplicity 1
 C        -0.115649         0.073486        -0.263819
 C         1.449885         0.218330         0.033366
 C         2.407895         1.406285        -0.059378
 C         3.455022         0.440103         0.545623
 O         4.673239         0.793448         1.238570
 C         3.610666        -0.617926        -0.587584
 C         2.201138        -1.124122        -0.341445
 O         1.673345        -2.208702        -0.931901
 C         2.158648        -0.520322         1.127939
 H        -0.764499         0.977656         0.038248
 H        -0.140476         0.018927        -1.344297
 H        -0.764205        -0.781710         0.095046
 H         2.593526         1.941971        -1.119287
 H         2.039009         2.077658         0.682949
 H         4.388139         1.545493         1.905446
 H         3.978953        -0.199063        -1.525997
 H         4.238271        -1.476557        -0.324170
 H         1.317086        -1.776156        -1.749519
 H         1.880821        -0.772571         2.100589
