19
Iteration:   316charge 0 multiplicity 1
 C        -0.083488         0.035666        -0.129065
 C         1.394299         0.249311         0.013674
 C         2.403944         1.427842         0.047058
 C         3.404238         0.393237         0.547938
 O         4.560434         0.743142         1.256632
 C         3.615609        -0.583894        -0.654380
 C         2.287663        -1.053344        -0.408727
 O         1.632642        -2.126105        -0.964758
 C         2.173823        -0.535172         1.031853
 H        -0.781651         0.645924         0.515395
 H        -0.563253        -0.090209        -1.173813
 H        -0.067771        -1.017515         0.338144
 H         2.691515         2.131342        -0.786382
 H         2.108220         2.200191         0.895267
 H         5.013533         1.328410         0.592357
 H         3.771230        -0.029448        -1.736973
 H         4.364775        -1.364083        -0.363808
 H         2.383577        -2.652055        -1.368030
 H         1.943716        -0.798375         2.157401
