19
Iteration:  2729charge 0 multiplicity 1
 C        -0.038245         0.166866        -0.266559
 C         1.438126         0.205397        -0.003256
 C         2.334983         1.341291         0.018343
 C         3.465932         0.391168         0.486149
 O         4.443937         0.879092         1.287823
 C         3.690192        -0.563819        -0.710601
 C         2.286305        -1.105972        -0.380524
 O         1.646610        -2.188672        -0.789144
 C         2.257708        -0.548869         1.057512
 H        -0.744362         0.899679         0.083432
 H        -0.065645         0.193286        -1.384083
 H        -0.613188        -0.775039        -0.076839
 H         2.514436         1.685371        -1.045788
 H         2.176624         2.044852         0.866041
 H         4.748299         0.296846         2.024899
 H         3.871354         0.004067        -1.661641
 H         4.496836        -1.341720        -0.452557
 H         1.071844        -2.069444        -1.536717
 H         2.188275        -1.181539         1.916835
