19
Iteration:  2346charge 0 multiplicity 1
 C        -0.080992         0.168002        -0.250386
 C         1.484474         0.219959         0.016594
 C         2.340966         1.426080         0.001364
 C         3.429297         0.418808         0.576050
 O         4.512879         0.804054         1.343432
 C         3.691439        -0.600393        -0.693329
 C         2.263093        -1.035921        -0.471434
 O         1.604119        -2.303765        -0.799529
 C         2.242928        -0.594736         0.965099
 H        -0.568006         1.174795        -0.013953
 H        -0.400635         0.087708        -1.225691
 H        -0.438435        -0.658834         0.374995
 H         2.726359         2.040358        -0.817658
 H         2.031901         2.109593         0.831581
 H         4.463871         1.737877         1.288250
 H         3.941845        -0.147588        -1.630129
 H         4.467260        -1.320577        -0.414359
 H         1.935006        -2.589201        -1.656669
 H         1.825647        -1.038894         1.959803
