19
Iteration:  1465
 C        -0.097234         0.407645        -0.108674
 C         1.353919         0.158738        -0.037027
 C         2.310364         1.312841        -0.027343
 C         3.382364         0.462622         0.483183
 O         4.489142         0.801425         1.230829
 C         3.727129        -0.611791        -0.629326
 C         2.272291        -1.129490        -0.385608
 O         1.847941        -2.325246        -0.896084
 C         2.207226        -0.620006         1.013043
 H        -0.331675         1.305136         0.384918
 H        -0.378108         0.836231        -1.037311
 H        -0.718034        -0.392988         0.094838
 H         2.401120         1.941724        -0.996047
 H         2.107320         1.873338         0.888806
 H         4.306699         1.159625         2.109906
 H         3.986427        -0.145582        -1.571882
 H         4.505700        -1.351245        -0.399123
 H         1.080726        -2.125272        -1.496022
 H         2.094861        -1.069924         2.080446
