19
Iteration:  2660
 C        -0.175334         0.301757        -0.146071
 C         1.314051         0.180735        -0.104792
 C         2.371081         1.404658        -0.044610
 C         3.402494         0.375889         0.550893
 O         4.517695         0.760991         1.280994
 C         3.695842        -0.579642        -0.624572
 C         2.284922        -1.127734        -0.396936
 O         1.791223        -2.307933        -0.832664
 C         2.261857        -0.514640         0.995078
 H        -0.549905         0.730861         0.756398
 H        -0.508057         0.841745        -1.068863
 H        -0.655256        -0.637649        -0.203212
 H         2.718042         1.881182        -1.049012
 H         1.990292         2.127445         0.654740
 H         4.103074         1.553762         1.811066
 H         4.011021        -0.287883        -1.646716
 H         4.439895        -1.272279        -0.235770
 H         1.878504        -2.175869        -1.797291
 H         2.088137        -1.083764         1.978655
