19
Iteration:  4038charge 0 multiplicity 1
 C        -0.236525         0.328807        -0.307289
 C         1.414302         0.161647        -0.060511
 C         2.368998         1.354777        -0.066411
 C         3.531280         0.341121         0.469338
 O         4.436307         0.835830         1.448382
 C         3.677358        -0.729390        -0.697487
 C         2.260870        -1.071337        -0.332100
 O         1.788735        -2.297801        -0.825976
 C         2.298058        -0.499107         1.026078
 H        -0.572773         1.127623         0.413705
 H        -0.470779         0.764280        -1.290055
 H        -0.770484        -0.579870        -0.107023
 H         2.648312         1.963177        -1.000421
 H         2.121204         2.072260         0.700987
 H         4.879874         1.709396         1.191272
 H         3.942050        -0.323518        -1.708856
 H         4.510870        -1.474826        -0.475200
 H         0.839334        -2.094010        -0.834071
 H         1.819764        -0.994637         1.898368
