19
Iteration:   801charge 0 multiplicity 1
 C        -0.114164         0.109880        -0.141076
 C         1.364560         0.168780         0.140409
 C         2.262199         1.384916         0.038759
 C         3.376209         0.431627         0.531155
 O         4.498596         0.808721         1.180359
 C         3.676289        -0.496729        -0.611660
 C         2.295138        -1.072578        -0.329361
 O         1.709595        -2.073974        -1.094154
 C         2.292068        -0.647137         1.091874
 H        -0.680675         0.483325         0.756033
 H        -0.294239         0.692694        -1.047028
 H        -0.537602        -0.805250        -0.491804
 H         2.361490         1.943996        -0.953986
 H         2.119833         1.960805         0.921338
 H         5.298703         0.417901         0.741521
 H         3.958862        -0.145210        -1.621764
 H         4.341657        -1.249528        -0.104655
 H         2.207415        -2.939540        -1.088206
 H         2.370312        -1.219413         1.984565
