19
Iteration:  2657charge 0 multiplicity 1
 C        -0.168536         0.295639        -0.165569
 C         1.314075         0.186002        -0.073187
 C         2.368223         1.396425        -0.082671
 C         3.417188         0.376768         0.558377
 O         4.517909         0.782267         1.301101
 C         3.697881        -0.581268        -0.620821
 C         2.256235        -1.138265        -0.383485
 O         1.790370        -2.303694        -0.855980
 C         2.273073        -0.516131         0.996116
 H        -0.514035         0.711874         0.782231
 H        -0.544703         0.846349        -0.978516
 H        -0.667247        -0.644642        -0.174890
 H         2.726829         1.873323        -0.944634
 H         1.990898         2.061415         0.671532
 H         4.212613         1.576039         1.722620
 H         3.989562        -0.307866        -1.622585
 H         4.345695        -1.338250        -0.229119
 H         1.838768        -2.204010        -1.805040
 H         2.109062        -1.041281         1.832079
