19
Iteration:  4475charge 0 multiplicity 1
 C         0.000004         0.065125        -0.113681
 C         1.495468         0.161886        -0.019501
 C         2.404508         1.518566        -0.153169
 C         3.467496         0.437732         0.498586
 O         4.448882         0.802640         1.426388
 C         3.687656        -0.591459        -0.609755
 C         2.228017        -1.079793        -0.463355
 O         1.538194        -2.279006        -0.896054
 C         2.313086        -0.449555         0.967832
 H        -0.658595         0.842333         0.338998
 H        -0.409319        -0.039158        -1.102335
 H        -0.398261        -0.819124         0.446204
 H         2.564917         1.851543        -1.205674
 H         2.083915         2.292996         0.511814
 H         4.054564         0.887923         2.280655
 H         3.998594        -0.402937        -1.713822
 H         4.558701        -1.216104        -0.294573
 H         1.443480        -2.124216        -1.858287
 H         2.127647        -0.971904         1.949493
