19
Iteration:  3688
 C        -0.048687         0.084659        -0.222776
 C         1.454272         0.200553        -0.110897
 C         2.443775         1.317674        -0.069382
 C         3.458917         0.358337         0.522173
 O         4.513614         0.861723         1.277886
 C         3.718933        -0.659617        -0.580528
 C         2.242334        -1.025519        -0.314818
 O         1.562450        -2.133443        -0.970933
 C         2.237974        -0.511315         1.085197
 H        -0.515039         0.731900         0.553222
 H        -0.424207         0.446133        -1.204651
 H        -0.332165        -0.921718        -0.259731
 H         2.634678         1.930016        -0.921412
 H         2.010140         2.007551         0.728634
 H         4.175457         1.676126         1.706503
 H         4.127202        -0.334333        -1.572976
 H         4.389690        -1.462531        -0.243730
 H         1.184210        -2.725059        -0.286850
 H         1.760264        -0.747387         1.992070
