19
Iteration:  1180
 C        -0.147552         0.454763        -0.310215
 C         1.375245         0.022975         0.125233
 C         2.253764         1.251441         0.080423
 C         3.450163         0.390378         0.470892
 O         4.450531         0.886981         1.363081
 C         3.649247        -0.508001        -0.817244
 C         2.283953        -1.143861        -0.342412
 O         1.735791        -2.350868        -0.816774
 C         2.423892        -0.610539         1.041835
 H        -0.600855         1.296618         0.260567
 H         0.031251         0.751598        -1.405350
 H        -0.845429        -0.339274        -0.315849
 H         2.093929         1.820041        -0.885627
 H         1.922769         1.904143         0.893312
 H         5.117148         1.520691         0.955702
 H         3.863300         0.064494        -1.739773
 H         4.548140        -1.164385        -0.827813
 H         1.214315        -2.015875        -1.570564
 H         2.522841        -1.287862         2.047534
