19
Iteration:  4780charge 0 multiplicity 1
 C        -0.134208         0.164981        -0.171850
 C         1.443267         0.239147        -0.043238
 C         2.344283         1.428908         0.074093
 C         3.424620         0.414196         0.523903
 O         4.514360         0.786797         1.386351
 C         3.711002        -0.576026        -0.678314
 C         2.314308        -1.107181        -0.507497
 O         1.685695        -2.279496        -0.855573
 C         2.193188        -0.535610         0.936277
 H        -0.519358         0.203497         0.876913
 H        -0.620864         0.948617        -0.775237
 H        -0.384442        -0.889590        -0.592548
 H         2.527852         1.840901        -0.896419
 H         1.946731         2.128910         0.850498
 H         4.620212         1.720422         1.423741
 H         4.076736        -0.065255        -1.605611
 H         4.412079        -1.361628        -0.327223
 H         1.676930        -2.438546        -1.824102
 H         1.821225        -1.120537         1.900624
