19
Iteration:   287
 C        -0.088883         0.108403        -0.050893
 C         1.460351         0.135067        -0.095617
 C         2.329030         1.484489        -0.015539
 C         3.464742         0.471133         0.475119
 O         4.451966         0.730246         1.447058
 C         3.655212        -0.533986        -0.770638
 C         2.271466        -1.044046        -0.464110
 O         1.553526        -2.204279        -0.897019
 C         2.357077        -0.572073         0.949124
 H        -0.463385         0.689459         0.777229
 H        -0.682618         0.388187        -0.871513
 H        -0.203020        -0.958320         0.156192
 H         2.532000         2.259414        -0.775304
 H         1.966859         1.941739         0.888529
 H         5.155955         1.311336         1.026777
 H         3.833645        -0.130517        -1.722393
 H         4.370243        -1.289930        -0.535821
 H         2.225159        -2.913104        -0.988760
 H         2.092993        -0.872917         2.032228
