19
Iteration:  1816
 C        -0.033550         0.268488        -0.194123
 C         1.390530         0.213105        -0.043309
 C         2.381118         1.378723        -0.046087
 C         3.412982         0.386189         0.543675
 O         4.519508         0.868413         1.247195
 C         3.702164        -0.669293        -0.586632
 C         2.246939        -1.083769        -0.338728
 O         1.736732        -2.255735        -0.894468
 C         2.174025        -0.569920         0.974948
 H        -0.553808         0.615915         0.778150
 H        -0.413662         1.007718        -0.918037
 H        -0.544969        -0.615937        -0.538726
 H         2.759385         1.588196        -1.072588
 H         2.209518         2.167079         0.669799
 H         4.292562         0.824393         2.189187
 H         3.924307        -0.303730        -1.625917
 H         4.292571        -1.602387        -0.284211
 H         0.971696        -1.955096        -1.377909
 H         1.992775        -1.182152         1.935524
