19
Iteration:  4176charge 0 multiplicity 1
 C        -0.051483         0.271769        -0.299006
 C         1.423224         0.137631        -0.070229
 C         2.349137         1.387201        -0.127371
 C         3.408369         0.385778         0.530914
 O         4.506993         0.947322         1.353281
 C         3.675634        -0.702928        -0.590414
 C         2.267228        -1.108031        -0.313278
 O         1.581480        -2.253086        -0.904322
 C         2.274204        -0.484180         1.087249
 H        -0.674873         0.716040         0.513414
 H        -0.288160         0.946959        -1.166732
 H        -0.482185        -0.689818        -0.542581
 H         2.596420         1.842116        -1.116537
 H         2.143356         2.237839         0.615053
 H         4.959009         0.167872         1.688217
 H         3.975763        -0.265950        -1.528621
 H         4.363571        -1.414859        -0.239775
 H         2.262031        -2.965848        -0.977137
 H         1.879275        -0.892599         2.077263
