19
Iteration:  2207charge 0 multiplicity 1
 C        -0.132759         0.274085        -0.326557
 C         1.340025         0.197671        -0.119659
 C         2.337853         1.369886        -0.051980
 C         3.402173         0.400280         0.490246
 O         4.502007         0.673206         1.366040
 C         3.692778        -0.610843        -0.648725
 C         2.314208        -1.081896        -0.289696
 O         1.739769        -2.219961        -0.800959
 C         2.165111        -0.455400         1.097873
 H        -0.594549         0.995390         0.217976
 H        -0.316417         0.789731        -1.309603
 H        -0.547196        -0.765570        -0.315590
 H         2.521761         2.008758        -1.019995
 H         1.966285         2.106358         0.760564
 H         5.157887         1.137530         0.700616
 H         3.903952        -0.088599        -1.584017
 H         4.609720        -1.230792        -0.327825
 H         2.382822        -2.912724        -0.975559
 H         1.920560        -0.994192         2.123536
