19
Iteration:  1440
 C        -0.057242         0.299270        -0.021254
 C         1.446874         0.179906        -0.015359
 C         2.443078         1.274116        -0.137414
 C         3.482931         0.345651         0.516640
 O         4.379646         0.949751         1.402367
 C         3.704942        -0.603983        -0.713602
 C         2.242000        -1.108206        -0.458108
 O         1.642002        -2.256603        -0.892478
 C         2.273506        -0.662234         1.023904
 H        -0.428294         1.092054         0.598089
 H        -0.371627         0.817481        -0.887442
 H        -0.584249        -0.607693         0.031788
 H         2.684229         1.507658        -1.204114
 H         2.192129         2.123964         0.481718
 H         3.889545         1.667777         1.746530
 H         3.998659        -0.148655        -1.660149
 H         4.408577        -1.408030        -0.503539
 H         1.648530        -2.302213        -1.887888
 H         2.096059        -1.104349         1.915176
