19
Iteration:  2420
 C        -0.183149         0.190679        -0.188821
 C         1.422071         0.178860        -0.087187
 C         2.354097         1.428209        -0.009475
 C         3.445194         0.374172         0.549732
 O         4.497549         0.847406         1.344549
 C         3.706794        -0.641333        -0.600655
 C         2.212126        -1.073400        -0.391019
 O         1.778390        -2.321302        -0.901241
 C         2.231541        -0.486068         1.029810
 H        -0.767783         0.783433         0.569778
 H        -0.528276         0.750944        -1.145768
 H        -0.466875        -0.838920        -0.319066
 H         2.698362         1.841290        -0.969018
 H         2.070157         2.222562         0.775533
 H         5.275207         1.098050         0.715335
 H         3.954772        -0.212210        -1.631943
 H         4.410927        -1.370763        -0.239816
 H         0.999620        -2.043001        -1.412817
 H         1.990817        -0.880305         2.062899
