19
Iteration:  4371
 C        -0.043348         0.233061        -0.243271
 C         1.417731         0.191623        -0.017495
 C         2.348174         1.353661        -0.103467
 C         3.421118         0.384721         0.481662
 O         4.424382         0.705436         1.371501
 C         3.713742        -0.535632        -0.702084
 C         2.244638        -1.044653        -0.439332
 O         1.727254        -2.256872        -0.657119
 C         2.222808        -0.570049         1.002542
 H        -0.418259         0.735547         0.648292
 H        -0.176283         0.987268        -1.048027
 H        -0.671125        -0.655683        -0.472692
 H         2.535830         1.746742        -1.081483
 H         2.155194         2.168346         0.621341
 H         4.638181         1.626928         1.249958
 H         3.810873         0.041795        -1.672799
 H         4.503960        -1.345432        -0.592193
 H         1.694364        -2.346949        -1.643946
 H         1.914442        -0.872541         1.952607
