19
Iteration:  3070charge 0 multiplicity 1
 C        -0.059952         0.201372        -0.287341
 C         1.496493         0.108220        -0.009302
 C         2.437981         1.298537        -0.009561
 C         3.508912         0.394458         0.604656
 O         4.550567         1.003848         1.203850
 C         3.690882        -0.741200        -0.633350
 C         2.237097        -1.128266        -0.297646
 O         1.620780        -2.154316        -0.945621
 C         2.171125        -0.613545         1.158082
 H        -0.477199         0.773922         0.481035
 H        -0.193521         0.606050        -1.321918
 H        -0.733721        -0.687296        -0.307691
 H         2.454696         1.855558        -1.018040
 H         1.989004         1.905302         0.701451
 H         4.029712         1.792638         1.601626
 H         3.764855        -0.353353        -1.642988
 H         4.307180        -1.540568        -0.278153
 H         0.956569        -1.810397        -1.589589
 H         1.697868        -0.944076         2.058117
