19
Iteration:  4848
 C        -0.138670         0.360248        -0.128747
 C         1.347507         0.083239        -0.032100
 C         2.304520         1.337214        -0.008557
 C         3.404960         0.384412         0.566895
 O         4.470225         0.877117         1.272021
 C         3.713437        -0.589293        -0.565000
 C         2.308048        -1.110073        -0.462957
 O         1.839894        -2.283736        -0.989787
 C         2.289718        -0.626381         1.007129
 H        -0.426795         1.241380         0.478629
 H        -0.471765         0.626362        -1.159766
 H        -0.773564        -0.478140         0.339521
 H         2.553982         1.776932        -0.945181
 H         1.972433         2.141228         0.724128
 H         4.162969         0.970659         2.204287
 H         3.964557        -0.154749        -1.535670
 H         4.403637        -1.440069        -0.224306
 H         1.286812        -1.988304        -1.748693
 H         1.935397        -0.842189         1.943853
