19
Iteration:  3598charge 0 multiplicity 1
 C        -0.179677         0.332169        -0.216733
 C         1.385724         0.212585        -0.004715
 C         2.382452         1.406456         0.004416
 C         3.396176         0.396405         0.575552
 O         4.577283         0.789574         1.183747
 C         3.653752        -0.604235        -0.595520
 C         2.255257        -1.123592        -0.454056
 O         1.834798        -2.426426        -0.831911
 C         2.119808        -0.484653         1.029013
 H        -0.395309         1.170049         0.442063
 H        -0.398213         0.643569        -1.234718
 H        -0.799881        -0.451429        -0.075644
 H         2.706959         1.989879        -0.825275
 H         2.105510         2.078016         0.817525
 H         4.371583         1.427331         1.838877
 H         4.058546        -0.349814        -1.587670
 H         4.394548        -1.338238        -0.239097
 H         1.661621        -2.231609        -1.761643
 H         1.858017        -0.954454         2.058787
