19
Iteration:  4539
 C        -0.079236         0.397925        -0.252589
 C         1.384807         0.108993         0.010628
 C         2.280620         1.418297         0.057621
 C         3.399595         0.403463         0.559420
 O         4.557379         0.828376         1.218445
 C         3.632064        -0.591224        -0.643914
 C         2.203228        -1.121751        -0.391070
 O         1.833798        -2.380374        -0.902818
 C         2.244262        -0.610063         1.091201
 H        -0.384400         1.026775         0.632195
 H        -0.105448         1.039878        -1.153403
 H        -0.600793        -0.542787        -0.289321
 H         2.277227         1.880380        -0.897028
 H         1.782687         2.235977         0.650649
 H         4.293777         1.561798         1.685376
 H         4.095444        -0.247053        -1.664218
 H         4.414824        -1.277185        -0.218749
 H         1.613231        -2.388640        -1.865802
 H         1.890830        -1.109714         2.016022
