19
Iteration:  4469
 C        -0.013803         0.052139        -0.142782
 C         1.443102         0.192843        -0.003606
 C         2.382285         1.501138        -0.132561
 C         3.446568         0.470242         0.484033
 O         4.480876         0.830826         1.413853
 C         3.769547        -0.596986        -0.661112
 C         2.249460        -1.087692        -0.420245
 O         1.501689        -2.318682        -0.945369
 C         2.290012        -0.453553         1.077608
 H        -0.449143         0.937777         0.335305
 H        -0.351530         0.049615        -1.215215
 H        -0.341989        -0.849505         0.425024
 H         2.667971         1.831454        -1.168906
 H         2.033439         2.420813         0.423585
 H         4.140618         0.768896         2.296482
 H         4.096238        -0.360088        -1.653746
 H         4.448285        -1.383845        -0.289317
 H         1.381626        -2.120313        -1.909498
 H         2.158045        -0.997321         1.965916
