19
Iteration:  2534
 C        -0.129942         0.243048        -0.246210
 C         1.357722         0.210019        -0.037870
 C         2.258430         1.439357         0.049474
 C         3.444302         0.399897         0.535486
 O         4.589940         0.791425         1.297961
 C         3.672678        -0.509676        -0.743412
 C         2.298209        -1.084239        -0.420961
 O         1.765089        -2.360839        -0.787558
 C         2.158705        -0.538918         0.990013
 H        -0.367680         1.222498         0.173859
 H        -0.474065         0.399190        -1.186365
 H        -0.763521        -0.533134         0.268319
 H         2.488249         2.113542        -0.796821
 H         1.731139         2.088731         0.854263
 H         4.915272         0.205945         2.043119
 H         3.839542        -0.003837        -1.640663
 H         4.566248        -1.118873        -0.448958
 H         2.046961        -2.457690        -1.702110
 H         1.931424        -1.293740         1.871075
