19
Iteration:  3134
 C        -0.146343         0.220873        -0.149671
 C         1.394717         0.237008        -0.190040
 C         2.438125         1.443036        -0.090182
 C         3.418071         0.393292         0.504351
 O         4.538985         0.691369         1.326935
 C         3.722688        -0.586917        -0.635013
 C         2.223495        -1.078351        -0.386578
 O         1.754084        -2.328657        -0.756916
 C         2.149618        -0.422199         0.974002
 H        -0.460038         1.088354         0.363748
 H        -0.644852        -0.079788        -1.122810
 H        -0.396927        -0.656358         0.547333
 H         2.623671         2.031660        -1.126626
 H         1.861225         2.096794         0.658012
 H         4.337679         1.096016         2.153535
 H         3.914869        -0.115428        -1.622760
 H         4.493232        -1.282636        -0.320222
 H         1.686496        -2.237910        -1.747248
 H         1.810286        -0.803763         1.893888
