19
Iteration:   654charge 0 multiplicity 1
 C        -0.134352         0.145793        -0.214003
 C         1.371393         0.076239         0.110731
 C         2.277639         1.424322         0.144847
 C         3.425171         0.478694         0.492099
 O         4.543218         0.926888         1.152479
 C         3.690220        -0.633664        -0.558781
 C         2.273757        -1.020126        -0.381891
 O         1.670004        -2.133646        -1.061979
 C         2.279128        -0.667889         1.047718
 H        -0.646848         0.775512         0.460312
 H        -0.160094         0.836559        -1.045570
 H        -0.679241        -0.825210        -0.362944
 H         2.480782         2.086595        -0.662055
 H         1.950035         1.882272         1.155472
 H         5.155405         0.263884         0.912972
 H         4.025088        -0.325212        -1.545305
 H         4.293551        -1.477249        -0.170284
 H         2.045492        -2.931104        -0.655229
 H         2.236429        -1.176440         1.886394
