19
Iteration:  2609charge 0 multiplicity 1
 C        -0.066428         0.154575        -0.170698
 C         1.396090         0.125348        -0.143354
 C         2.423301         1.333035        -0.068340
 C         3.459389         0.388859         0.516197
 O         4.387740         0.952090         1.340555
 C         3.768172        -0.646972        -0.512991
 C         2.281637        -1.102953        -0.390846
 O         1.591662        -2.140052        -0.954262
 C         2.298353        -0.647570         1.104183
 H        -0.537640         0.737081         0.679494
 H        -0.490173         0.573944        -1.160322
 H        -0.568852        -0.926450        -0.100148
 H         2.558868         1.850374        -0.991647
 H         2.180277         1.985026         0.832508
 H         5.044299         1.419792         0.765558
 H         4.039766        -0.171083        -1.497659
 H         4.487249        -1.502517        -0.207358
 H         1.021065        -1.599757        -1.593421
 H         2.178249        -1.183311         2.204602
