19
Iteration:  3541
 C        -0.044542         0.048175        -0.286539
 C         1.493291         0.227506        -0.037985
 C         2.394675         1.385493        -0.066738
 C         3.515550         0.403285         0.529942
 O         4.530341         0.850689         1.297556
 C         3.746691        -0.582373        -0.629815
 C         2.232624        -1.060729        -0.305366
 O         1.380227        -2.222171        -0.882919
 C         2.281356        -0.561195         1.088532
 H        -0.733706         0.730298         0.117283
 H        -0.290332         0.183028        -1.344010
 H        -0.234237        -0.885164         0.161266
 H         2.684756         1.920863        -0.989528
 H         2.195130         2.102032         0.678863
 H         4.189937         1.527838         1.955825
 H         3.931353        -0.184545        -1.630144
 H         4.580259        -1.225376        -0.250202
 H         1.589881        -2.220625        -1.855718
 H         2.388088        -0.900784         2.139994
