19
Iteration:   850
 C        -0.073459         0.070083        -0.137090
 C         1.480828         0.158322        -0.052280
 C         2.381587         1.484761         0.217693
 C         3.436293         0.377731         0.444996
 O         4.366784         0.822262         1.347906
 C         3.674179        -0.448295        -0.820560
 C         2.327312        -1.062605        -0.490094
 O         1.555114        -2.191829        -0.893148
 C         2.323711        -0.643398         0.955292
 H        -0.497787         0.553041         0.710592
 H        -0.467259         0.383137        -1.123086
 H        -0.483516        -0.986414        -0.112097
 H         2.834021         2.146442        -0.532141
 H         2.160596         2.141123         1.177154
 H         5.325117         0.677601         1.170662
 H         3.544874         0.254133        -1.711949
 H         4.610948        -1.022103        -0.901658
 H         1.890187        -2.818949        -0.267146
 H         2.028597        -1.221657         2.010703
