19
Iteration:  2552
 C        -0.149426         0.192753        -0.239167
 C         1.357533         0.173949        -0.093119
 C         2.404098         1.335584         0.040037
 C         3.397965         0.388604         0.562645
 O         4.501472         0.788358         1.302394
 C         3.620174        -0.495217        -0.720783
 C         2.243761        -1.011070        -0.408997
 O         1.850474        -2.243776        -0.757438
 C         2.228462        -0.546902         1.029652
 H        -0.672877         1.132007         0.076252
 H        -0.450356         0.080040        -1.389005
 H        -0.498313        -0.712435         0.283447
 H         2.608522         1.987359        -0.800602
 H         2.169758         2.059981         0.802412
 H         4.864525        -0.135094         1.552642
 H         3.743511         0.122783        -1.695371
 H         4.295414        -1.373753        -0.730474
 H         1.559669        -2.130146        -1.676244
 H         1.836649        -0.766403         1.942883
