19
Iteration:  3027charge 0 multiplicity 1
 C        -0.138930         0.298477        -0.259610
 C         1.307162         0.220049        -0.005309
 C         2.316745         1.427849         0.007968
 C         3.363115         0.419997         0.515473
 O         4.590615         0.704815         1.214269
 C         3.713069        -0.564576        -0.621407
 C         2.298390        -1.041803        -0.432374
 O         1.761636        -2.329609        -0.734853
 C         2.209683        -0.550739         0.995627
 H        -0.731504         0.666269         0.604519
 H        -0.379736         0.809238        -1.241061
 H        -0.507504        -0.750548        -0.394810
 H         2.607290         1.840711        -0.976005
 H         2.235386         2.221822         0.744783
 H         4.534375         1.321672         1.944073
 H         4.103261        -0.156034        -1.613794
 H         4.239119        -1.403462        -0.145015
 H         1.824668        -2.438888        -1.725556
 H         1.923517        -1.202100         1.850473
