19
Iteration:  3403
 C        -0.042967         0.088322        -0.235165
 C         1.429347         0.202812        -0.048881
 C         2.378015         1.406769        -0.091442
 C         3.396933         0.363354         0.562361
 O         4.536345         0.825614         1.190022
 C         3.706086        -0.677063        -0.542421
 C         2.288724        -1.123835        -0.382021
 O         1.658191        -2.117497        -0.911553
 C         2.202383        -0.535311         1.102175
 H        -0.656823         0.797560         0.464414
 H        -0.322024         0.596772        -1.166617
 H        -0.397883        -0.963214        -0.082849
 H         2.694019         2.032806        -0.937192
 H         2.078651         2.078592         0.616122
 H         4.331275         1.320775         1.957521
 H         4.226478        -0.248933        -1.393017
 H         4.303782        -1.512428        -0.138919
 H         0.749850        -1.908368        -1.123818
 H         1.897845        -0.799462         2.084591
