19
Iteration:   174
 C        -0.139834         0.061223        -0.089442
 C         1.352334         0.219880         0.138358
 C         2.327237         1.374991        -0.017196
 C         3.516413         0.346839         0.461031
 O         4.579948         0.764542         1.296183
 C         3.679637        -0.478746        -0.732152
 C         2.235656        -1.002496        -0.438249
 O         1.701801        -2.188162        -0.918123
 C         2.291064        -0.617304         1.020628
 H        -0.814653         0.745646         0.428623
 H        -0.397589         0.354039        -1.128906
 H        -0.409616        -0.986176         0.109513
 H         2.407613         1.848583        -1.007508
 H         2.181352         2.234321         0.718724
 H         4.468090         1.663409         1.712210
 H         3.832695         0.066830        -1.648028
 H         4.343979        -1.295964        -0.578224
 H         0.863277        -1.995633        -1.434402
 H         2.189764        -1.286856         1.785126
