19
Iteration:  2809charge 0 multiplicity 1
 C        -0.095574         0.273187        -0.086376
 C         1.401563         0.225384        -0.047729
 C         2.340716         1.350351        -0.157761
 C         3.381847         0.462542         0.510471
 O         4.443933         0.793032         1.408050
 C         3.676688        -0.593967        -0.616507
 C         2.251530        -1.101130        -0.430108
 O         1.781249        -2.332703        -0.890595
 C         2.228296        -0.541539         1.010034
 H        -0.525753         0.925701         0.759949
 H        -0.530434         0.777519        -0.953595
 H        -0.533486        -0.765208         0.004451
 H         2.503425         1.844278        -1.083790
 H         2.040944         2.224780         0.527355
 H         5.282970         0.916558         0.883340
 H         4.211156        -0.193707        -1.480396
 H         4.403669        -1.331640        -0.233394
 H         1.550223        -2.209322        -1.817078
 H         2.082903        -1.029618         2.055532
