19
Iteration:  3612charge 0 multiplicity 1
 C        -0.092481         0.452691        -0.157926
 C         1.330164         0.154739        -0.073113
 C         2.337027         1.431320        -0.027765
 C         3.381668         0.431345         0.503677
 O         4.621373         0.800516         1.231117
 C         3.681594        -0.599220        -0.572319
 C         2.206414        -1.128806        -0.394250
 O         1.877273        -2.453383        -0.861534
 C         2.131971        -0.601131         1.001491
 H        -0.600919         1.132891         0.542377
 H        -0.315965         0.889325        -1.076644
 H        -0.534213        -0.539260        -0.007451
 H         2.529534         1.852570        -1.016893
 H         1.887526         2.306526         0.688353
 H         4.368670         1.302372         2.073102
 H         3.998450        -0.102727        -1.527026
 H         4.350639        -1.325007        -0.110325
 H         1.269558        -2.631359        -1.620500
 H         1.678547        -0.716976         1.899580
