19
Iteration:  2680
 C        -0.056385         0.280638        -0.213473
 C         1.382787         0.227311        -0.023960
 C         2.295853         1.426059        -0.045788
 C         3.388020         0.417309         0.518650
 O         4.489887         0.720690         1.220868
 C         3.748517        -0.499661        -0.673398
 C         2.282854        -1.109056        -0.425449
 O         1.806519        -2.314317        -0.708918
 C         2.145289        -0.568673         0.959363
 H        -0.366203         0.841352         0.667261
 H        -0.452183         0.747812        -1.078272
 H        -0.575401        -0.610791        -0.068992
 H         2.571364         2.053793        -0.850638
 H         2.013503         1.936660         0.839385
 H         4.340807         0.693726         2.200780
 H         3.923843        -0.048602        -1.642913
 H         4.435827        -1.253375        -0.434023
 H         1.761855        -2.539347        -1.685689
 H         1.679372        -0.986314         1.828598
