19
Iteration:  3763
 C        -0.074390         0.396412        -0.329623
 C         1.398670         0.160416        -0.019857
 C         2.390449         1.374622        -0.026136
 C         3.415030         0.424127         0.420920
 O         4.469431         0.768047         1.253547
 C         3.688129        -0.580294        -0.671113
 C         2.309333        -1.134517        -0.310201
 O         1.749430        -2.324028        -0.735422
 C         2.181696        -0.593519         1.084170
 H        -0.475596         1.309104         0.251858
 H        -0.455586         0.306418        -1.394383
 H        -0.502088        -0.490749         0.094390
 H         2.755938         1.949270        -0.919256
 H         2.233269         2.050153         0.780173
 H         4.108054         1.306790         2.031434
 H         3.781277        -0.078614        -1.645781
 H         4.561070        -1.204597        -0.426111
 H         1.342581        -2.208951        -1.624013
 H         1.761249        -1.191951         1.906975
