19
Iteration:  2861charge 0 multiplicity 1
 C        -0.057797         0.165079        -0.254001
 C         1.428083         0.249128         0.010121
 C         2.368293         1.446737         0.033848
 C         3.440288         0.460686         0.514079
 O         4.424952         0.726513         1.401674
 C         3.699772        -0.562985        -0.757269
 C         2.203225        -1.029745        -0.515849
 O         1.706968        -2.345405        -0.656205
 C         2.268432        -0.555074         0.917741
 H        -0.464735         0.703329         0.552188
 H        -0.141996         0.801636        -1.167832
 H        -0.604980        -0.797356        -0.377996
 H         2.660932         2.032409        -0.892356
 H         1.989113         2.085509         0.826138
 H         4.756118         1.526622         1.040865
 H         3.887710        -0.058323        -1.764655
 H         4.432273        -1.380885        -0.533227
 H         1.347516        -2.415159        -1.559460
 H         2.135143        -1.260600         1.700039
