19
Iteration:   953charge 0 multiplicity 1
 C        -0.108538         0.076451        -0.079968
 C         1.466550         0.143985        -0.039932
 C         2.349195         1.320017         0.062293
 C         3.494942         0.347077         0.473545
 O         4.410398         0.997663         1.364764
 C         3.822028        -0.559272        -0.666838
 C         2.284043        -1.033579        -0.475145
 O         1.448193        -2.116484        -0.990166
 C         2.333134        -0.639665         0.976017
 H        -0.500869         0.729446         0.785617
 H        -0.565483         0.634760        -0.920686
 H        -0.476653        -0.937145         0.002279
 H         2.376267         2.014827        -0.839217
 H         1.941429         1.840026         1.041653
 H         5.265003         0.613309         1.339095
 H         4.152298        -0.139320        -1.618803
 H         4.485516        -1.389232        -0.276847
 H         2.095310        -2.823683        -1.266798
 H         2.094674        -1.061428         1.874054
