19
Iteration:  2442charge 0 multiplicity 1
 C        -0.066692         0.103217        -0.165625
 C         1.454510         0.167030        -0.053396
 C         2.374294         1.376696        -0.120382
 C         3.407396         0.400302         0.487597
 O         4.449404         0.885645         1.333139
 C         3.753659        -0.723645        -0.549326
 C         2.251778        -1.049556        -0.363037
 O         1.721227        -2.145939        -0.927646
 C         2.181977        -0.486377         1.017513
 H        -0.481776         0.366717         0.849905
 H        -0.703730         0.846698        -0.723236
 H        -0.324313        -0.916639        -0.357827
 H         2.413579         1.976370        -1.022711
 H         1.948406         1.962428         0.725014
 H         5.282727         0.528504         1.134244
 H         4.025885        -0.482480        -1.625378
 H         4.438312        -1.382375        -0.036860
 H         0.869480        -1.841931        -1.300522
 H         1.835090        -0.910795         1.947133
