19
Iteration:  2474
 C        -0.143104         0.166855        -0.128270
 C         1.430118         0.152330         0.020866
 C         2.458417         1.359422        -0.160503
 C         3.506764         0.401917         0.562295
 O         4.479250         1.042892         1.329526
 C         3.693101        -0.635525        -0.594003
 C         2.240614        -1.099028        -0.402283
 O         1.644713        -2.225321        -0.960102
 C         2.223979        -0.662162         1.034256
 H        -0.526422         0.305262         0.882093
 H        -0.401407         0.839773        -1.006877
 H        -0.560699        -0.777699        -0.388555
 H         2.723732         1.635995        -1.155065
 H         2.104131         2.162525         0.418354
 H         4.646667         0.346457         2.077801
 H         3.998719        -0.243983        -1.648756
 H         4.511605        -1.240874        -0.238392
 H         1.067214        -1.912313        -1.696476
 H         1.849754        -0.967050         1.976617
