19
Iteration:  2575charge 0 multiplicity 1
 C        -0.046411         0.123765        -0.208434
 C         1.428919         0.187728         0.029417
 C         2.371894         1.501567        -0.025679
 C         3.399846         0.419463         0.529020
 O         4.437226         0.830249         1.392074
 C         3.695175        -0.589132        -0.666861
 C         2.253212        -1.065275        -0.450596
 O         1.696193        -2.271378        -0.877533
 C         2.223102        -0.524006         1.034258
 H        -0.690580         0.972519         0.136865
 H        -0.180823         0.069895        -1.346257
 H        -0.371676        -0.890691         0.184859
 H         2.551336         1.942720        -0.973612
 H         2.213620         2.366804         0.650750
 H         5.203064         0.383723         1.121298
 H         3.867688        -0.221887        -1.712550
 H         4.477023        -1.370444        -0.430377
 H         1.005359        -2.243507        -1.582086
 H         2.190948        -1.167120         1.955496
