19
Iteration:  1643
 C        -0.031532         0.278653        -0.208449
 C         1.384229         0.144017        -0.047478
 C         2.382550         1.385785        -0.091925
 C         3.375406         0.339084         0.546139
 O         4.497141         0.726299         1.344830
 C         3.668041        -0.577725        -0.677128
 C         2.261448        -1.006367        -0.444857
 O         1.777737        -2.236906        -0.825275
 C         2.218797        -0.568115         1.024000
 H        -0.528777         0.908709         0.594827
 H        -0.376088         0.598202        -1.209845
 H        -0.570982        -0.675732        -0.008795
 H         2.644205         1.939388        -1.039395
 H         2.132212         2.202388         0.664035
 H         4.290404         1.569853         1.795788
 H         4.148761        -0.164813        -1.585797
 H         4.345521        -1.401872        -0.407461
 H         0.808552        -2.214699        -1.050642
 H         1.922673        -1.116153         1.850155
