19
Iteration:  4799charge 0 multiplicity 1
 C        -0.118513         0.309210        -0.093584
 C         1.361435         0.168481        -0.149211
 C         2.419172         1.279372        -0.015909
 C         3.393185         0.288419         0.581023
 O         4.413181         0.873226         1.329684
 C         3.702655        -0.559462        -0.653853
 C         2.250703        -1.052031        -0.437415
 O         1.812821        -2.265392        -0.864891
 C         2.251411        -0.669430         0.975069
 H        -0.611933         0.689465         0.830311
 H        -0.275967         1.210902        -0.710673
 H        -0.764264        -0.494833        -0.346174
 H         2.666209         2.112163        -0.752763
 H         2.140164         1.790408         0.870839
 H         4.274826         1.871672         1.330516
 H         3.962367         0.118320        -1.662542
 H         4.421874        -1.330761        -0.425250
 H         1.793100        -2.200072        -1.833984
 H         1.972711        -1.252134         1.910903
