19
Iteration:  1827
 C        -0.123115         0.264375        -0.265840
 C         1.432113         0.183969        -0.022022
 C         2.379193         1.412268        -0.009395
 C         3.427080         0.389187         0.545398
 O         4.580838         0.873411         1.162379
 C         3.692074        -0.703573        -0.493466
 C         2.278707        -1.121037        -0.373228
 O         1.687304        -2.265246        -0.992106
 C         2.158173        -0.528123         1.113874
 H        -0.613601         0.508753         0.750418
 H        -0.288667         0.986763        -1.068121
 H        -0.488634        -0.718262        -0.499624
 H         2.504810         2.069799        -0.943756
 H         2.078784         2.190553         0.695900
 H         4.520889         0.697767         2.168293
 H         4.114152        -0.277405        -1.452849
 H         4.547028        -1.254307         0.030155
 H         0.781722        -2.193735        -1.340223
 H         1.942250        -1.079029         2.099857
