19
Iteration:  1618
 C        -0.171769         0.390693        -0.132542
 C         1.315640         0.242462        -0.077355
 C         2.307364         1.398240        -0.129713
 C         3.380527         0.391706         0.555253
 O         4.549801         0.628650         1.310662
 C         3.697957        -0.581338        -0.544947
 C         2.288282        -1.141033        -0.359194
 O         1.910220        -2.365009        -0.944054
 C         2.181712        -0.448230         1.010407
 H        -0.554257         0.986742         0.825541
 H        -0.714464         0.681652        -1.086738
 H        -0.677561        -0.546944         0.140112
 H         2.397634         1.941902        -1.116781
 H         2.110787         2.143561         0.577947
 H         4.669103         1.510571         1.576352
 H         3.997806        -0.219897        -1.560278
 H         4.433194        -1.356264        -0.212934
 H         1.402952        -2.143152        -1.766536
 H         1.901404        -0.833886         2.013260
