19
Iteration:   859
 C        -0.034658         0.117130        -0.069838
 C         1.434966         0.225119         0.010221
 C         2.347335         1.427491         0.211798
 C         3.402361         0.368481         0.517847
 O         4.369057         0.823530         1.318006
 C         3.734170        -0.443075        -0.853897
 C         2.321915        -1.075195        -0.506932
 O         1.604108        -2.239834        -0.920240
 C         2.285035        -0.618097         0.895779
 H        -0.591645         0.725713         0.616268
 H        -0.332026         0.485980        -1.041944
 H        -0.289743        -0.962063         0.091534
 H         2.561583         2.193626        -0.574388
 H         2.022265         1.991050         1.078478
 H         5.303067         0.531238         1.149616
 H         3.837856         0.019439        -1.887563
 H         4.666575        -1.024547        -0.693884
 H         1.739588        -2.991408        -0.362858
 H         1.921462        -0.898387         1.913470
