19
Iteration:  2261
 C        -0.089444         0.288831        -0.170081
 C         1.389363         0.188977        -0.070675
 C         2.390564         1.304222        -0.056359
 C         3.473239         0.286095         0.535176
 O         4.375964         0.998758         1.307897
 C         3.759717        -0.666675        -0.650392
 C         2.306511        -1.096013        -0.396814
 O         1.710425        -2.239562        -0.928371
 C         2.211503        -0.551764         1.005423
 H        -0.454537         0.810947         0.751535
 H        -0.351029         0.984216        -1.058869
 H        -0.724849        -0.651824        -0.435846
 H         2.843820         1.595344        -1.055816
 H         1.964331         2.132975         0.524475
 H         4.798762         0.392277         2.054901
 H         3.961691        -0.064682        -1.565978
 H         4.565608        -1.487164        -0.398037
 H         1.102634        -2.620531        -0.260851
 H         1.927167        -0.849350         2.126419
