19
Iteration:  1767charge 0 multiplicity 1
 C        -0.048618         0.351769        -0.055422
 C         1.448313         0.228681        -0.106516
 C         2.385230         1.470671        -0.112379
 C         3.378308         0.445903         0.508653
 O         4.367126         0.681847         1.442450
 C         3.734908        -0.632657        -0.741206
 C         2.345724        -1.130467        -0.504224
 O         1.644049        -2.302051        -0.761877
 C         2.259434        -0.585167         0.923821
 H        -0.463576         1.004272         0.628329
 H        -0.605936         0.676488        -0.943508
 H        -0.462288        -0.667823         0.190921
 H         2.641485         1.953378        -1.064577
 H         1.983899         2.150614         0.756768
 H         4.438768         1.681861         1.534023
 H         4.115329        -0.304189        -1.738138
 H         4.593669        -1.196070        -0.269772
 H         1.924754        -2.753390        -1.607175
 H         1.924422        -0.988132         1.795250
