19
Iteration:  2759charge 0 multiplicity 1
 C        -0.097493         0.124689        -0.165853
 C         1.439237         0.146923        -0.069014
 C         2.384530         1.345706        -0.013464
 C         3.465658         0.409679         0.565982
 O         4.479133         1.013783         1.297769
 C         3.704435        -0.649969        -0.534346
 C         2.262347        -1.153202        -0.365528
 O         1.574477        -2.173500        -0.971049
 C         2.280175        -0.597976         1.049523
 H        -0.651023         0.969671         0.161151
 H        -0.296925         0.289146        -1.260842
 H        -0.554214        -0.794537         0.107670
 H         2.605420         1.915417        -0.974275
 H         2.175117         2.176557         0.589272
 H         5.377282         0.569979         1.152532
 H         4.186658        -0.342258        -1.465015
 H         4.440062        -1.399961        -0.261895
 H         1.124537        -2.013199        -1.831926
 H         1.777525        -0.892584         2.073928
