19
Iteration:  1903
 C        -0.090846         0.253984        -0.238915
 C         1.409310         0.136167        -0.085779
 C         2.323033         1.372386        -0.119911
 C         3.478085         0.414736         0.522733
 O         4.514574         0.761216         1.416440
 C         3.680656        -0.595065        -0.698133
 C         2.278964        -1.020189        -0.405943
 O         1.669424        -2.256035        -0.873982
 C         2.315829        -0.540743         1.036849
 H        -0.352472         1.327324         0.000232
 H        -0.359335         0.102869        -1.274047
 H        -0.495330        -0.437314         0.418781
 H         2.575773         2.086470        -1.003468
 H         1.983705         2.044385         0.763465
 H         4.064512         1.080158         2.200281
 H         3.977183        -0.182897        -1.705034
 H         4.323186        -1.521799        -0.535982
 H         0.780059        -2.337498        -0.528659
 H         2.140112        -1.076187         1.969047
