19
Iteration:   671charge 0 multiplicity 1
 C        -0.126928         0.100554        -0.207870
 C         1.372022         0.225965        -0.037172
 C         2.260767         1.354458         0.195008
 C         3.431521         0.314784         0.583631
 O         4.582748         0.862305         1.147761
 C         3.694160        -0.553789        -0.696979
 C         2.273532        -1.011009        -0.424548
 O         1.697956        -2.124513        -0.939142
 C         2.184703        -0.542206         1.052970
 H        -0.738071         0.556398         0.650238
 H        -0.575818         0.475209        -1.167618
 H        -0.315495        -0.959868        -0.105971
 H         2.368729         2.092365        -0.693604
 H         2.074522         1.931458         1.043243
 H         5.268819         0.247266         1.290637
 H         4.082092        -0.092567        -1.650603
 H         4.494030        -1.272462        -0.390137
 H         2.276597        -2.906107        -0.826925
 H         1.804387        -1.099376         2.042966
