19
Iteration:  2113
 C        -0.004085         0.312113        -0.151631
 C         1.457238         0.141449        -0.032685
 C         2.354482         1.335503        -0.138707
 C         3.388234         0.366475         0.603438
 O         4.504832         0.901342         1.299606
 C         3.668796        -0.701030        -0.553176
 C         2.190996        -1.085030        -0.469777
 O         1.696081        -2.235663        -1.012797
 C         2.198401        -0.532017         1.051986
 H        -0.387615         1.341856         0.317037
 H        -0.295708         0.499441        -1.207044
 H        -0.627637        -0.462867         0.223169
 H         2.723280         1.649483        -1.098037
 H         2.236384         2.208806         0.516825
 H         4.126801         1.281956         2.088259
 H         4.151836        -0.308283        -1.517489
 H         4.361855        -1.410822        -0.147288
 H         1.939345        -2.953451        -0.357976
 H         1.820135        -1.117945         1.987668
