19
Iteration:  4924
 C        -0.028235         0.151498        -0.301454
 C         1.364634         0.159176         0.030720
 C         2.322708         1.338170         0.048416
 C         3.433812         0.406828         0.536902
 O         4.453823         0.778993         1.370515
 C         3.677111        -0.545627        -0.735724
 C         2.348292        -1.046742        -0.393151
 O         1.685411        -2.163349        -0.840801
 C         2.223764        -0.619093         1.061353
 H        -0.549756         0.837337         0.355093
 H        -0.170034         0.393107        -1.347234
 H        -0.494238        -0.858016        -0.138190
 H         2.421064         1.767731        -0.928206
 H         2.145022         2.092087         0.850596
 H         4.855043         1.621553         0.993673
 H         3.737715        -0.032420        -1.811074
 H         4.514322        -1.305018        -0.442627
 H         1.661295        -2.131781        -1.804952
 H         1.858403        -0.942561         1.965700
