19
Iteration:   185
 C        -0.094541         0.082478        -0.088152
 C         1.384244         0.139792         0.074323
 C         2.341524         1.458398         0.011586
 C         3.377164         0.458824         0.570581
 O         4.587087         0.748533         1.226923
 C         3.673088        -0.584695        -0.718614
 C         2.196546        -0.941920        -0.459845
 O         1.749304        -2.191015        -0.956515
 C         2.248822        -0.640479         1.056441
 H        -0.442011         0.629988         0.784255
 H        -0.365502         0.381366        -1.118580
 H        -0.562505        -0.910551         0.048459
 H         2.615197         1.940892        -0.936835
 H         2.053406         2.160807         0.881478
 H         4.682580         1.692946         1.319675
 H         4.013345        -0.087868        -1.643144
 H         4.439544        -1.269809        -0.446419
 H         0.786895        -2.279953        -1.145299
 H         2.193126        -1.420660         1.690921
