19
Iteration:  4494
 C        -0.074141         0.079964        -0.078545
 C         1.400303         0.246636        -0.176983
 C         2.410199         1.361969        -0.104663
 C         3.409293         0.369172         0.467064
 O         4.424441         0.749872         1.396616
 C         3.769450        -0.589846        -0.711474
 C         2.280937        -0.971557        -0.421454
 O         1.692112        -2.178835        -0.769343
 C         2.229174        -0.539624         0.969373
 H        -0.486136         0.996684         0.474669
 H        -0.627780         0.045379        -1.059988
 H        -0.254377        -0.737564         0.547747
 H         2.776506         1.891733        -0.940945
 H         2.109093         2.146769         0.657245
 H         4.057205         1.252878         2.067518
 H         4.210673        -0.187448        -1.717749
 H         4.297295        -1.512901        -0.532480
 H         1.483329        -2.172086        -1.736094
 H         1.782488        -0.913950         2.003727
