19
Iteration:  1935charge 0 multiplicity 1
 C        -0.082993         0.301991        -0.080330
 C         1.417362         0.285163        -0.103043
 C         2.415946         1.485045        -0.128591
 C         3.361798         0.363808         0.530366
 O         4.420082         0.662161         1.340074
 C         3.764199        -0.558292        -0.620815
 C         2.234255        -1.128850        -0.499849
 O         1.840928        -2.358592        -0.879502
 C         2.165921        -0.523018         0.975714
 H        -0.447390         1.374210         0.082712
 H        -0.578945        -0.081905        -1.004895
 H        -0.409959        -0.365873         0.660557
 H         2.764171         1.988371        -1.026126
 H         2.119232         2.032702         0.839261
 H         4.332134         1.505939         1.809683
 H         4.087408         0.043976        -1.516916
 H         4.336261        -1.512778        -0.362265
 H         0.872471        -2.409337        -0.606554
 H         1.752141        -0.727236         1.983639
