19
Iteration:  2222charge 0 multiplicity 1
 C        -0.060002         0.350730        -0.325772
 C         1.438293         0.151720        -0.077827
 C         2.314353         1.395896        -0.028992
 C         3.375494         0.394182         0.569204
 O         4.433599         0.759425         1.348285
 C         3.682003        -0.574328        -0.628471
 C         2.250477        -1.067823        -0.429424
 O         1.723995        -2.306902        -0.773288
 C         2.227745        -0.507772         0.971313
 H        -0.416933         0.747915         0.675122
 H        -0.302548         0.828106        -1.287491
 H        -0.610269        -0.556313        -0.285050
 H         2.544511         1.993080        -0.886909
 H         1.977242         2.070221         0.830394
 H         5.276683         0.829206         0.949606
 H         3.924763        -0.360057        -1.683488
 H         4.266615        -1.387803        -0.336383
 H         2.451766        -2.886003        -0.539412
 H         1.930692        -0.802773         1.885460
