19
Iteration:  2118charge 0 multiplicity 1
 C         0.002960         0.302137        -0.168413
 C         1.478536         0.122855        -0.021373
 C         2.364875         1.346484        -0.126252
 C         3.403154         0.353858         0.574275
 O         4.477304         0.916761         1.309581
 C         3.704950        -0.692131        -0.535660
 C         2.204666        -1.073061        -0.498143
 O         1.643569        -2.231974        -1.018076
 C         2.212500        -0.530549         1.071003
 H        -0.179659         1.208628         0.244510
 H        -0.394524         0.427407        -1.180887
 H        -0.628865        -0.515036         0.295026
 H         2.577217         1.573611        -1.232210
 H         2.221481         2.094485         0.677255
 H         4.271014         1.518594         2.116251
 H         4.116529        -0.257835        -1.427088
 H         4.346804        -1.488787        -0.037968
 H         1.717313        -2.950523        -0.394473
 H         1.870801        -1.091892         1.837115
