19
Iteration:  1813
 C        -0.045373         0.273210        -0.176026
 C         1.394718         0.217956        -0.044854
 C         2.394677         1.346447        -0.067614
 C         3.400795         0.369149         0.533065
 O         4.505828         0.865813         1.277323
 C         3.691839        -0.652085        -0.610326
 C         2.243496        -1.072682        -0.366042
 O         1.747441        -2.252534        -0.866171
 C         2.191942        -0.577541         0.979367
 H        -0.524917         0.609042         0.707079
 H        -0.375980         1.074152        -0.886804
 H        -0.498433        -0.640968        -0.481501
 H         2.777785         1.625692        -1.109061
 H         2.176802         2.219547         0.669740
 H         4.283889         0.895903         2.193502
 H         3.958446        -0.358171        -1.660678
 H         4.273770        -1.616080        -0.386517
 H         1.000133        -1.892805        -1.404712
 H         1.931258        -1.154620         1.927671
