19
Iteration:  4077
 C        -0.033384         0.190787        -0.229979
 C         1.419554         0.247481        -0.110838
 C         2.416434         1.489031        -0.138522
 C         3.359405         0.482376         0.552397
 O         4.450859         0.640610         1.359917
 C         3.692618        -0.511242        -0.589200
 C         2.320046        -1.078771        -0.388017
 O         1.775030        -2.346787        -0.834072
 C         2.154581        -0.491592         1.034297
 H        -0.541461         1.057036         0.254374
 H        -0.497153         0.289532        -1.249610
 H        -0.597342        -0.676916         0.236211
 H         2.536694         1.931773        -1.127071
 H         2.025628         2.303153         0.593650
 H         5.207900         0.472308         0.873977
 H         3.779193        -0.159519        -1.621889
 H         4.355812        -1.286909        -0.300999
 H         0.924964        -2.490783        -0.372100
 H         1.561989        -0.654985         1.860946
