19
Iteration:  4702
 C        -0.036561         0.299071        -0.189511
 C         1.403288         0.111722         0.008713
 C         2.308598         1.340684         0.119121
 C         3.358420         0.368043         0.559545
 O         4.539676         0.966159         1.230278
 C         3.700119        -0.603818        -0.604453
 C         2.260948        -1.095531        -0.481675
 O         1.717766        -2.326713        -0.941198
 C         2.247052        -0.628729         0.971526
 H        -0.436091         1.298892         0.170813
 H        -0.274228         0.407089        -1.274476
 H        -0.733594        -0.408533         0.285475
 H         2.655189         2.025085        -0.674075
 H         1.997719         2.018885         0.948541
 H         4.331154         1.308981         2.182201
 H         3.995438        -0.368957        -1.594309
 H         4.356510        -1.316872        -0.199564
 H         1.323440        -2.167828        -1.810573
 H         2.081193        -1.103766         1.855444
