19
Iteration:   961
 C        -0.079262         0.063729        -0.092192
 C         1.400242         0.133785         0.030187
 C         2.337987         1.372408         0.050401
 C         3.490074         0.403223         0.470483
 O         4.406290         0.932941         1.372395
 C         3.851669        -0.526275        -0.746821
 C         2.326988        -1.064963        -0.457047
 O         1.450830        -2.101340        -0.935934
 C         2.271806        -0.641116         0.938191
 H        -0.539547         0.615986         0.739951
 H        -0.403634         0.540356        -1.055061
 H        -0.441527        -0.926786        -0.121209
 H         2.531130         1.870589        -0.816052
 H         2.229088         1.998974         0.966017
 H         5.285302         0.572689         1.305613
 H         4.233466         0.068695        -1.573490
 H         4.446507        -1.363388        -0.363661
 H         2.076251        -2.889993        -0.998571
 H         1.972503        -1.240710         1.731294
