19
Iteration:  4110
 C        -0.130190         0.187685        -0.287405
 C         1.424378         0.178384        -0.045933
 C         2.401471         1.346139        -0.117724
 C         3.476888         0.397323         0.572698
 O         4.476142         0.876808         1.342027
 C         3.669146        -0.681447        -0.580650
 C         2.198074        -1.011731        -0.361001
 O         1.727676        -2.191039        -0.970337
 C         2.230137        -0.477191         1.101940
 H        -0.555925         1.110053         0.185131
 H        -0.332733         0.195752        -1.414473
 H        -0.674431        -0.698244         0.147195
 H         2.502244         1.823745        -1.110868
 H         2.249023         2.109119         0.735765
 H         5.223647         0.255814         1.420204
 H         3.993168        -0.404877        -1.588374
 H         4.141965        -1.610865        -0.343894
 H         1.377510        -2.779898        -0.298428
 H         1.889336        -0.803172         2.053492
