19
Iteration:  4202
 C        -0.078236         0.216598        -0.262711
 C         1.382985         0.307524        -0.047882
 C         2.474336         1.385928        -0.080144
 C         3.372777         0.364706         0.469529
 O         4.423484         0.760731         1.323310
 C         3.632253        -0.588724        -0.622354
 C         2.308198        -1.018405        -0.332214
 O         1.738990        -2.259164        -0.816472
 C         2.163500        -0.479721         0.986697
 H        -0.797767         0.486822         0.585592
 H        -0.562206         0.752865        -1.116638
 H        -0.324730        -0.854423        -0.480148
 H         2.743642         1.706946        -1.120876
 H         2.485365         2.231609         0.576050
 H         5.083354         0.110833         1.266354
 H         3.896623        -0.248197        -1.660162
 H         4.293069        -1.384450        -0.116870
 H         2.118776        -2.911796        -0.163518
 H         1.701846        -0.732935         1.908403
