19
Iteration:  2475
 C        -0.144284         0.176912        -0.129900
 C         1.426404         0.157617         0.013185
 C         2.452710         1.349297        -0.157611
 C         3.516659         0.399193         0.550783
 O         4.480174         1.044672         1.332864
 C         3.688484        -0.637915        -0.597418
 C         2.247728        -1.101910        -0.401462
 O         1.648916        -2.221156        -0.955673
 C         2.219047        -0.667820         1.043660
 H        -0.549562         0.319636         0.889664
 H        -0.398918         0.814062        -0.985508
 H        -0.550614        -0.783974        -0.386736
 H         2.720388         1.642454        -1.138092
 H         2.084791         2.187157         0.434998
 H         4.636049         0.371990         2.095522
 H         3.972476        -0.247899        -1.635842
 H         4.516634        -1.241908        -0.260127
 H         1.080644        -1.923216        -1.719663
 H         1.857425        -0.984044         1.935767
