19
Iteration:  2051charge 0 multiplicity 1
 C        -0.042647         0.248727        -0.338222
 C         1.386376         0.255691        -0.096197
 C         2.352051         1.470938        -0.037199
 C         3.370664         0.408421         0.516821
 O         4.543883         0.659673         1.318584
 C         3.656467        -0.574524        -0.627181
 C         2.283267        -1.014911        -0.386143
 O         1.649381        -2.313468        -0.681849
 C         2.258712        -0.575780         0.984093
 H        -0.494946         0.464004         0.580238
 H        -0.307731         0.985097        -1.097456
 H        -0.285657        -0.765190        -0.717097
 H         2.607191         1.974525        -1.065611
 H         2.125275         2.153596         0.776165
 H         4.363052         1.480757         1.745808
 H         3.832507        -0.089670        -1.596826
 H         4.410635        -1.225628        -0.156385
 H         1.971437        -2.592320        -1.597112
 H         1.819312        -1.127056         1.875975
