19
Iteration:  1748
 C        -0.061707         0.266974        -0.106814
 C         1.406148         0.213700        -0.172829
 C         2.390233         1.380396        -0.036942
 C         3.440696         0.357558         0.532517
 O         4.435003         0.734843         1.377349
 C         3.682359        -0.622717        -0.641698
 C         2.240812        -1.004833        -0.409366
 O         1.723710        -2.307449        -0.834944
 C         2.174629        -0.505710         0.961541
 H        -0.222556         1.160953         0.540347
 H        -0.505355         0.377680        -1.124222
 H        -0.522733        -0.599509         0.264363
 H         2.642314         2.019489        -0.924619
 H         2.057903         1.869719         0.859075
 H         5.047000         1.436597         0.930493
 H         3.952999        -0.081241        -1.567156
 H         4.218547        -1.434285        -0.146399
 H         1.945536        -2.385225        -1.800711
 H         1.877209        -0.807670         1.897881
