19
Iteration:  2881
 C        -0.153718         0.207166        -0.304868
 C         1.367920         0.182717        -0.015015
 C         2.312960         1.375762         0.050991
 C         3.470313         0.356461         0.491728
 O         4.555533         0.776110         1.341123
 C         3.729990        -0.544107        -0.671100
 C         2.279359        -1.068784        -0.425278
 O         1.668462        -2.224963        -0.757187
 C         2.262460        -0.573831         1.027762
 H        -0.887011         0.691001         0.413786
 H        -0.452874         0.497844        -1.400633
 H        -0.437067        -0.879038        -0.218698
 H         2.475671         1.965418        -0.954306
 H         2.173504         2.064198         0.837383
 H         4.704116         1.771317         1.094518
 H         3.999853        -0.269932        -1.769574
 H         4.396624        -1.391457        -0.314093
 H         1.443056        -2.079671        -1.682924
 H         2.085044        -0.990309         1.932965
