19
Iteration:  3524
 C        -0.041420         0.085699        -0.235222
 C         1.437132         0.141910        -0.020762
 C         2.416253         1.383398        -0.046216
 C         3.420595         0.399619         0.520914
 O         4.550902         0.844626         1.267860
 C         3.671935        -0.687150        -0.621187
 C         2.250373        -1.079222        -0.401879
 O         1.582009        -2.122978        -0.811064
 C         2.268199        -0.509382         1.040521
 H        -0.585971         0.986657         0.261799
 H        -0.312893         0.172480        -1.318186
 H        -0.454006        -0.927871         0.067476
 H         2.650372         1.850836        -1.002162
 H         2.145045         2.232975         0.752980
 H         4.145138         1.340132         1.998480
 H         4.029422        -0.247914        -1.592404
 H         4.343992        -1.517862        -0.372360
 H         1.450791        -1.931069        -1.770482
 H         1.702345        -0.896111         1.954935
