19
Iteration:  3386
 C        -0.011466         0.094055        -0.280178
 C         1.381848         0.178439         0.013127
 C         2.400050         1.394228        -0.033832
 C         3.421820         0.407216         0.548285
 O         4.590065         0.792665         1.175741
 C         3.662580        -0.647687        -0.525617
 C         2.248188        -1.038291        -0.247935
 O         1.630632        -2.216967        -1.006385
 C         2.187092        -0.446703         1.109849
 H        -0.532978         0.777892         0.303102
 H        -0.339363         0.069108        -1.338946
 H        -0.176658        -0.942207         0.067257
 H         2.791838         1.844154        -1.061015
 H         2.134057         2.320749         0.712838
 H         4.410513         1.342119         1.959378
 H         3.764275        -0.355767        -1.617190
 H         4.503730        -1.240672        -0.134532
 H         0.932223        -1.934984        -1.599556
 H         1.817440        -0.960723         2.110165
