19
Iteration:   342
 C        -0.159329         0.162248        -0.187413
 C         1.327053         0.063630         0.153120
 C         2.239614         1.261568         0.016217
 C         3.478418         0.405708         0.543655
 O         4.610527         0.818454         1.273595
 C         3.664758        -0.565290        -0.604111
 C         2.260352        -1.027694        -0.413390
 O         1.603418        -2.061930        -1.068671
 C         2.355312        -0.531218         1.115513
 H        -0.611832         1.022028         0.317586
 H        -0.223763         0.163334        -1.249531
 H        -0.741631        -0.710790         0.142700
 H         2.409126         1.600157        -1.035602
 H         2.093405         2.160702         0.571271
 H         5.155431         1.298071         0.577079
 H         3.944916        -0.191146        -1.615025
 H         4.287490        -1.380346        -0.239673
 H         2.345751        -2.743780        -1.079619
 H         2.230146        -1.115671         1.972370
