19
Iteration:  4368charge 0 multiplicity 1
 C        -0.061842         0.230663        -0.234005
 C         1.415900         0.175130        -0.010335
 C         2.394445         1.389824        -0.104879
 C         3.409751         0.386247         0.473368
 O         4.423054         0.703360         1.380383
 C         3.730423        -0.517312        -0.727405
 C         2.235627        -1.051612        -0.441214
 O         1.711559        -2.270996        -0.660335
 C         2.223830        -0.556516         1.006627
 H        -0.422008         0.721721         0.669328
 H        -0.174442         0.937701        -1.070231
 H        -0.646124        -0.779244        -0.480446
 H         2.499791         1.756523        -1.207543
 H         2.204769         2.197068         0.604945
 H         4.601988         1.641885         1.355778
 H         3.879061         0.043186        -1.619817
 H         4.452250        -1.367777        -0.582873
 H         1.723991        -2.377976        -1.631746
 H         1.860828        -0.950536         2.029106
