19
Iteration:  1805
 C        -0.105693         0.305180        -0.148153
 C         1.429932         0.193651        -0.042773
 C         2.447075         1.291418        -0.143354
 C         3.419548         0.314740         0.529969
 O         4.460569         0.848041         1.355137
 C         3.656377        -0.624276        -0.698672
 C         2.255025        -1.022614        -0.465714
 O         1.741182        -2.242130        -0.801994
 C         2.250921        -0.579401         1.031769
 H        -0.577787         0.596328         0.872119
 H        -0.254139         1.081567        -0.915606
 H        -0.465654        -0.685446        -0.364639
 H         2.649338         1.880361        -1.071017
 H         2.115069         2.119690         0.465393
 H         4.146054         1.076974         2.198644
 H         4.044811        -0.256042        -1.686215
 H         4.347901        -1.497540        -0.417270
 H         1.119508        -2.109294        -1.548129
 H         1.729095        -1.021025         1.980061
