19
Iteration:  4165
 C        -0.085941         0.272581        -0.331075
 C         1.429716         0.099205        -0.109097
 C         2.383149         1.223429        -0.070946
 C         3.528361         0.455162         0.585919
 O         4.495651         1.000597         1.322033
 C         3.675966        -0.648268        -0.563901
 C         2.220915        -1.123474        -0.343628
 O         1.547671        -2.176480        -0.898563
 C         2.291075        -0.548559         1.049407
 H        -0.363035         0.798289         0.607012
 H        -0.113233         0.917802        -1.250950
 H        -0.650988        -0.653016        -0.456003
 H         2.533702         1.772356        -1.038980
 H         1.800597         1.911809         0.691463
 H         4.912873         0.386531         1.859080
 H         3.912469        -0.632305        -1.607798
 H         4.227627        -1.427131        -0.144487
 H         2.164819        -2.918824        -1.026352
 H         1.871092        -0.662632         2.108306
