19
Iteration:  1538
 C         0.023950         0.121077        -0.283047
 C         1.430308         0.160839         0.039737
 C         2.339649         1.402463        -0.043221
 C         3.480779         0.422322         0.539366
 O         4.573752         0.827057         1.358415
 C         3.664138        -0.585793        -0.649640
 C         2.208967        -1.097855        -0.379471
 O         1.495883        -2.124692        -0.997573
 C         2.338004        -0.595221         1.055362
 H        -0.691575         0.833544         0.308415
 H        -0.066526         0.456359        -1.387720
 H        -0.324128        -0.984238        -0.249271
 H         2.451614         1.872326        -1.008407
 H         1.894753         2.095541         0.669761
 H         4.103866         1.456038         1.865801
 H         3.879391        -0.302608        -1.725557
 H         4.391483        -1.362540        -0.287715
 H         1.363614        -2.810377        -0.295366
 H         2.368667        -0.993417         2.101823
