19
Iteration:   153charge 0 multiplicity 1
 C        -0.087758         0.071097        -0.095925
 C         1.422991         0.107430         0.069872
 C         2.351141         1.365680         0.023985
 C         3.439009         0.406168         0.486745
 O         4.494413         0.813689         1.302647
 C         3.659981        -0.530575        -0.875819
 C         2.284171        -1.062864        -0.403346
 O         1.580001        -2.134132        -0.905570
 C         2.399088        -0.585657         1.068429
 H        -0.527105         0.945549         0.404376
 H        -0.418226         0.220715        -1.134197
 H        -0.517343        -0.852908         0.318488
 H         2.616070         1.921222        -0.856865
 H         2.054152         2.121105         0.770603
 H         4.298525         1.073308         2.231717
 H         3.664814         0.010943        -1.775113
 H         4.454274        -1.185361        -0.696661
 H         1.577782        -2.100352        -1.865111
 H         2.296969        -0.857679         2.080667
