19
Iteration:  1722charge 0 multiplicity 1
 C        -0.150767         0.198038        -0.238661
 C         1.343516         0.196129         0.047683
 C         2.416719         1.448695        -0.030714
 C         3.437915         0.388196         0.608784
 O         4.550263         0.861757         1.299683
 C         3.668033        -0.679073        -0.564335
 C         2.258992        -1.039905        -0.357261
 O         1.740522        -2.266589        -0.964503
 C         2.164872        -0.573569         1.030156
 H        -0.562190         1.134115         0.125157
 H        -0.375230         0.432456        -1.296393
 H        -0.805419        -0.696937         0.042018
 H         2.764606         1.603625        -1.049428
 H         2.142390         2.386371         0.624717
 H         5.366233         0.408293         0.910869
 H         3.919317        -0.188111        -1.571503
 H         4.367145        -1.488505        -0.270055
 H         1.251360        -2.001611        -1.796446
 H         1.921641        -0.946341         2.099552
