19
Iteration:   212
 C        -0.127865         0.227689        -0.020589
 C         1.373672         0.165849        -0.072299
 C         2.279194         1.363167         0.118321
 C         3.433888         0.393158         0.483697
 O         4.571793         0.827986         1.219077
 C         3.730374        -0.591576        -0.630842
 C         2.233373        -1.103038        -0.361481
 O         1.783547        -2.243679        -1.088413
 C         2.220952        -0.601708         1.010484
 H        -0.432336         0.708782         0.930430
 H        -0.546203         0.805227        -0.860187
 H        -0.566572        -0.771043        -0.085563
 H         2.331460         2.204989        -0.578952
 H         2.092990         1.699516         1.087645
 H         4.797022         1.655120         0.827894
 H         3.969182        -0.010377        -1.516420
 H         4.586375        -1.268794        -0.420693
 H         0.918206        -2.585446        -0.788994
 H         1.763697        -0.609718         2.092681
