19
Iteration:  2122
 C         0.000413         0.271671        -0.187205
 C         1.454135         0.124547        -0.025573
 C         2.399649         1.330978        -0.119360
 C         3.426191         0.354391         0.544919
 O         4.455881         0.926990         1.320561
 C         3.746694        -0.683380        -0.506025
 C         2.249263        -1.064270        -0.496195
 O         1.589374        -2.221539        -1.026334
 C         2.228549        -0.529972         1.063795
 H        -0.126137         1.343072         0.398578
 H        -0.423442         0.316498        -1.285896
 H        -0.585984        -0.520762         0.364383
 H         2.437763         1.622459        -1.143262
 H         2.092045         2.075216         0.720311
 H         4.306828         1.596921         1.962078
 H         4.142994        -0.242668        -1.435670
 H         4.279285        -1.508086        -0.057596
 H         1.550620        -2.991633        -0.383736
 H         1.856597        -1.194969         1.966354
