19
Iteration:  4598
 C        -0.041511         0.068465        -0.234101
 C         1.406443         0.203051        -0.008930
 C         2.374569         1.412817         0.018118
 C         3.443618         0.410903         0.510800
 O         4.617006         0.807315         1.311863
 C         3.695630        -0.575976        -0.588636
 C         2.228727        -1.030935        -0.497730
 O         1.572177        -2.195937        -0.798585
 C         2.224683        -0.566670         0.944215
 H        -0.761200         0.186355         0.541422
 H        -0.411318         0.646866        -1.078840
 H        -0.288503        -0.964437        -0.642746
 H         2.445976         1.888982        -0.976226
 H         1.906148         1.927602         0.782339
 H         4.368831         1.699513         1.768896
 H         4.365189        -0.219930        -1.492713
 H         4.253283        -1.347350         0.076361
 H         1.253553        -2.082985        -1.706987
 H         2.172316        -1.147740         1.913441
