19
Iteration:  3479
 C        -0.168822         0.381084        -0.100356
 C         1.347826         0.195337        -0.112801
 C         2.372874         1.373415        -0.100163
 C         3.378954         0.386668         0.561297
 O         4.559138         0.759991         1.260952
 C         3.686444        -0.593847        -0.575692
 C         2.255544        -1.111396        -0.411412
 O         1.890628        -2.399307        -0.886849
 C         2.194352        -0.531565         1.021591
 H        -0.307299         1.313973         0.610190
 H        -0.272966         0.902876        -1.116407
 H        -0.944161        -0.390550        -0.154815
 H         2.591756         1.936088        -0.974875
 H         1.790182         2.101870         0.654613
 H         4.376883         1.542121         1.870598
 H         3.781470        -0.350594        -1.656811
 H         4.457870        -1.346071        -0.326281
 H         0.968857        -2.404287        -1.256647
 H         1.882974        -0.860727         2.091461
