19
Iteration:  3776
 C        -0.009544         0.278922        -0.245398
 C         1.446260         0.206776        -0.123036
 C         2.372672         1.396621        -0.069023
 C         3.413941         0.370864         0.552906
 O         4.500074         0.780675         1.301566
 C         3.673467        -0.555024        -0.602263
 C         2.231212        -1.077285        -0.428822
 O         1.715021        -2.359275        -0.719937
 C         2.221137        -0.569347         0.933582
 H        -0.315489         1.266563         0.280982
 H        -0.262251         0.566370        -1.304987
 H        -0.671225        -0.507294         0.166555
 H         2.486715         1.970096        -0.961220
 H         1.897521         2.056744         0.688549
 H         4.149588         1.392929         1.934662
 H         3.959403        -0.112927        -1.614944
 H         4.491089        -1.306659        -0.348573
 H         0.895467        -2.253139        -1.230379
 H         2.059723        -1.017778         1.988257
