19
Iteration:  4125
 C         0.000030         0.231874        -0.268672
 C         1.385013         0.268790         0.100831
 C         2.477197         1.375526        -0.026200
 C         3.390419         0.335117         0.474844
 O         4.429971         1.026511         1.271678
 C         3.701812        -0.714411        -0.549671
 C         2.243118        -1.103585        -0.378228
 O         1.631331        -2.204781        -0.994605
 C         2.164571        -0.634795         1.023917
 H        -0.683178         1.058387         0.062648
 H        -0.150805         0.301251        -1.375224
 H        -0.454785        -0.672526         0.060171
 H         2.833965         1.734783        -0.999871
 H         2.265493         2.231323         0.532900
 H         5.048039         0.290887         1.662044
 H         4.164536        -0.357116        -1.524669
 H         4.435149        -1.437585        -0.014363
 H         1.574396        -2.917948        -0.330390
 H         1.943868        -1.039562         2.083585
