19
Iteration:  2642
 C        -0.100053         0.246791        -0.115634
 C         1.423231         0.175493        -0.000088
 C         2.375811         1.321124        -0.109529
 C         3.465633         0.428761         0.480820
 O         4.509046         0.884093         1.386697
 C         3.667381        -0.675483        -0.588058
 C         2.215432        -1.016588        -0.441070
 O         1.746221        -2.318765        -0.943710
 C         2.181947        -0.589826         1.055120
 H        -0.593502         0.738122         0.785689
 H        -0.309643         0.874999        -1.055352
 H        -0.533645        -0.831879        -0.326865
 H         2.397203         1.776828        -1.135113
 H         2.142125         2.150258         0.655780
 H         4.602222         1.916690         1.361734
 H         4.056243        -0.200046        -1.527151
 H         4.322131        -1.584817        -0.341416
 H         1.548616        -2.189475        -1.886989
 H         1.848260        -0.958839         2.128041
