19
Iteration:  4204charge 0 multiplicity 1
 C        -0.093109         0.222299        -0.259883
 C         1.390905         0.300839        -0.076718
 C         2.457507         1.389052        -0.079088
 C         3.363912         0.372529         0.468671
 O         4.440519         0.761327         1.340452
 C         3.622310        -0.594537        -0.628984
 C         2.288610        -1.029126        -0.351067
 O         1.751513        -2.249133        -0.807817
 C         2.186947        -0.468041         1.001516
 H        -0.770375         0.461157         0.555083
 H        -0.563464         0.686146        -1.106828
 H        -0.380755        -0.867369        -0.485337
 H         2.754620         1.675941        -1.086084
 H         2.503393         2.179790         0.617270
 H         5.187300         0.073565         1.267971
 H         3.909657        -0.209506        -1.661371
 H         4.275055        -1.426888        -0.115986
 H         2.043034        -2.892772        -0.112019
 H         1.671852        -0.752353         1.830635
