19
Iteration:  3891charge 0 multiplicity 1
 C         0.001888         0.291548        -0.285644
 C         1.405309         0.256674        -0.008644
 C         2.365989         1.371543        -0.009460
 C         3.418335         0.363299         0.533134
 O         4.496125         0.840824         1.269315
 C         3.708613        -0.661618        -0.662072
 C         2.195565        -1.034750        -0.432785
 O         1.711211        -2.330969        -0.735177
 C         2.208699        -0.584620         0.995101
 H        -0.508112         1.134661         0.135488
 H        -0.130676         0.390016        -1.362433
 H        -0.460643        -0.591450         0.256169
 H         2.554025         2.120639        -0.807247
 H         1.896279         1.889648         0.848391
 H         4.345903         1.604933         1.768488
 H         3.987692        -0.166357        -1.680900
 H         4.380318        -1.451547        -0.288864
 H         1.440491        -2.383414        -1.672817
 H         1.841629        -1.307027         1.825647
