19
Iteration:  3937charge 0 multiplicity 1
 C        -0.051575         0.215308        -0.263552
 C         1.430124         0.209077        -0.094288
 C         2.334278         1.416586        -0.109316
 C         3.367130         0.420901         0.501323
 O         4.550212         0.619243         1.292641
 C         3.675290        -0.516232        -0.649922
 C         2.319633        -1.028446        -0.360438
 O         1.651830        -2.248588        -0.712890
 C         2.224879        -0.478226         1.052251
 H        -0.747620         0.833710         0.340438
 H        -0.297245         0.383462        -1.338571
 H        -0.260283        -0.796641        -0.041627
 H         2.421907         1.721184        -1.201224
 H         2.013947         2.242009         0.489585
 H         4.195964         1.003511         2.134362
 H         3.750967         0.029235        -1.633884
 H         4.422376        -1.293838        -0.440555
 H         2.197597        -2.673463        -1.415197
 H         1.788638        -0.822332         2.042910
