19
Iteration:  3270
 C        -0.071153         0.205717        -0.151311
 C         1.408327         0.206898         0.024853
 C         2.328788         1.375931        -0.154600
 C         3.391549         0.455314         0.525230
 O         4.553328         0.726668         1.248510
 C         3.743863        -0.594721        -0.533922
 C         2.261787        -1.068130        -0.386759
 O         1.756802        -2.235575        -0.910667
 C         2.152435        -0.485833         1.033019
 H        -0.758855         0.743072         0.588003
 H        -0.400449         0.605518        -1.145651
 H        -0.402736        -0.803857        -0.192531
 H         2.772408         1.549472        -1.288747
 H         2.074852         2.246245         0.383912
 H         4.287485         1.304544         1.962146
 H         4.014848        -0.667076        -1.564703
 H         4.362046        -1.395978        -0.091296
 H         0.904339        -2.156672        -1.328093
 H         1.919469        -0.996736         2.111217
