19
Iteration:  2986charge 0 multiplicity 1
 C        -0.055634         0.243339        -0.136078
 C         1.449836         0.233638        -0.099748
 C         2.427681         1.423559        -0.069517
 C         3.399758         0.472927         0.496225
 O         4.423705         0.735784         1.384722
 C         3.669407        -0.528314        -0.785335
 C         2.246724        -1.139915        -0.405219
 O         1.696815        -2.368035        -0.717290
 C         2.254554        -0.531586         0.927161
 H        -0.441612         0.996677         0.619888
 H        -0.469909         0.634744        -1.027695
 H        -0.365419        -0.748218         0.056332
 H         2.765621         1.774852        -0.998373
 H         1.979435         2.306273         0.569050
 H         4.066732         0.702181         2.285670
 H         3.785982        -0.102181        -1.782721
 H         4.637791        -1.018774        -0.633309
 H         1.681655        -2.308187        -1.681438
 H         2.036977        -0.786035         1.907425
