19
Iteration:  1363
 C        -0.126573         0.190720        -0.304940
 C         1.365651         0.165577         0.097767
 C         2.351933         1.410372         0.012673
 C         3.432263         0.442420         0.510921
 O         4.619330         0.824737         1.311608
 C         3.553536        -0.470853        -0.677521
 C         2.209098        -1.085487        -0.384008
 O         1.789229        -2.313859        -0.825336
 C         2.198712        -0.584564         1.051402
 H        -0.719181         0.735983         0.410378
 H        -0.221706         0.587101        -1.300343
 H        -0.606313        -0.749105        -0.290850
 H         2.735453         1.898345        -0.983838
 H         2.102295         2.305950         0.591392
 H         5.251014         0.113539         0.980270
 H         3.820979        -0.063662        -1.639132
 H         4.303372        -1.240529        -0.497034
 H         1.369852        -2.236771        -1.691667
 H         1.927567        -0.914759         2.097376
