19
Iteration:  2158charge 0 multiplicity 1
 C        -0.062115         0.055175        -0.309115
 C         1.441194         0.196842        -0.036797
 C         2.475395         1.367521        -0.050949
 C         3.478066         0.400388         0.551730
 O         4.462496         0.873143         1.367110
 C         3.742045        -0.734315        -0.580612
 C         2.319949        -1.066423        -0.354267
 O         1.476900        -2.059207        -0.953037
 C         2.220083        -0.545919         1.047204
 H        -0.552710         1.060542         0.161341
 H        -0.387620        -0.022433        -1.339149
 H        -0.436982        -0.746296         0.298344
 H         2.608468         1.929983        -0.984664
 H         2.211356         2.125134         0.669767
 H         4.360618         1.780619         1.181708
 H         4.024467        -0.348190        -1.611457
 H         4.405731        -1.558979        -0.358564
 H         1.825142        -2.963741        -0.697097
 H         1.844958        -0.925235         1.968297
