19
Iteration:  1366
 C        -0.098169         0.162787        -0.279361
 C         1.358115         0.152000         0.078396
 C         2.354359         1.439733         0.008378
 C         3.413501         0.449296         0.512433
 O         4.625531         0.809402         1.314275
 C         3.559927        -0.483619        -0.658587
 C         2.198339        -1.076539        -0.396297
 O         1.780273        -2.313747        -0.832012
 C         2.185595        -0.568965         1.065804
 H        -0.744947         0.778794         0.402207
 H        -0.321604         0.672690        -1.318620
 H        -0.494913        -0.855553        -0.302264
 H         2.713277         1.872958        -1.030325
 H         2.104816         2.299880         0.614182
 H         5.338129         0.204233         0.959258
 H         3.826459        -0.143176        -1.674607
 H         4.292358        -1.283447        -0.469811
 H         1.460665        -2.132196        -1.740411
 H         1.987200        -0.813990         2.008982
