19
Iteration:  3786charge 0 multiplicity 1
 C        -0.055771         0.279140        -0.197554
 C         1.439462         0.134951        -0.145033
 C         2.338381         1.407093        -0.066860
 C         3.395377         0.394614         0.598900
 O         4.522914         0.801789         1.352718
 C         3.721321        -0.616166        -0.689418
 C         2.267847        -1.059710        -0.518316
 O         1.682814        -2.350340        -0.742226
 C         2.247093        -0.473833         0.972404
 H        -0.454784         1.163039         0.477900
 H        -0.358347         0.382706        -1.299672
 H        -0.536306        -0.686374        -0.028018
 H         2.703988         1.868526        -1.010658
 H         1.931916         2.142158         0.622715
 H         4.472956         1.504841         2.045196
 H         4.251817        -0.232571        -1.590152
 H         4.211155        -1.548985        -0.230498
 H         0.759514        -2.234435        -1.049040
 H         1.802924        -0.954488         1.963493
