19
Iteration:  2393charge 0 multiplicity 1
 C        -0.042874         0.324019        -0.230669
 C         1.428716         0.121531         0.016380
 C         2.285029         1.397722        -0.002791
 C         3.391982         0.365556         0.519573
 O         4.466816         0.781506         1.335298
 C         3.657874        -0.511319        -0.711321
 C         2.255155        -1.068458        -0.393846
 O         1.777231        -2.321516        -0.757082
 C         2.224100        -0.638403         1.006598
 H        -0.463398         1.224369         0.122886
 H        -0.099021         0.557465        -1.279445
 H        -0.684090        -0.576739        -0.062615
 H         2.524943         1.714035        -1.019751
 H         2.083558         2.204947         0.626371
 H         4.929856         1.636430         1.008079
 H         3.826855        -0.033766        -1.677322
 H         4.453172        -1.290699        -0.492868
 H         1.465636        -2.149938        -1.661218
 H         1.970902        -1.118307         1.872841
