19
Iteration:  1710charge 0 multiplicity 1
 C        -0.068645         0.202203        -0.304681
 C         1.396076         0.200967         0.100427
 C         2.375517         1.318477        -0.061660
 C         3.402588         0.381626         0.579343
 O         4.544102         0.882000         1.230001
 C         3.689098        -0.577660        -0.548382
 C         2.232603        -1.079799        -0.376967
 O         1.693211        -2.195925        -0.975166
 C         2.191798        -0.570158         1.129101
 H        -0.588855         1.006585         0.256091
 H        -0.055010         0.280041        -1.411274
 H        -0.689681        -0.718429        -0.000087
 H         2.486876         1.826786        -1.022744
 H         2.177090         2.221065         0.649922
 H         5.105354         0.068514         1.410886
 H         4.197778        -0.269740        -1.515531
 H         4.305970        -1.409776        -0.108022
 H         0.983459        -1.873785        -1.533091
 H         1.965296        -1.181924         2.111122
