19
Iteration:    44
 C        -0.132581         0.148189        -0.061310
 C         1.361479         0.142023        -0.005781
 C         2.278835         1.334149         0.065364
 C         3.490432         0.434852         0.467824
 O         4.582065         0.830450         1.370028
 C         3.680049        -0.577159        -0.863803
 C         2.337229        -1.090370        -0.423586
 O         1.658989        -2.201287        -0.833495
 C         2.282140        -0.608589         0.954780
 H        -0.577136         0.477481         0.899227
 H        -0.539821         0.843008        -0.834151
 H        -0.548055        -0.858957        -0.252994
 H         2.349938         1.978874        -0.794488
 H         2.024072         2.065115         0.905853
 H         4.650923         1.769233         1.251531
 H         3.811823        -0.052298        -1.858719
 H         4.450669        -1.372152        -0.652989
 H         1.176447        -1.859740        -1.604988
 H         2.094024        -1.034887         1.879648
