19
Iteration:  2176
 C         0.022886         0.091411        -0.317089
 C         1.407919         0.226171        -0.044214
 C         2.406255         1.349931        -0.090638
 C         3.386559         0.335669         0.532717
 O         4.553082         0.795430         1.386237
 C         3.617883        -0.616095        -0.597834
 C         2.174571        -1.041725        -0.384516
 O         1.561540        -2.148190        -0.924590
 C         2.252239        -0.452513         1.130694
 H        -0.607958         0.900490         0.116083
 H         0.119900         0.014113        -1.461395
 H        -0.346895        -0.851559         0.103662
 H         2.648303         1.800287        -1.061469
 H         2.055810         2.269478         0.542258
 H         4.868155         1.657897         1.328234
 H         4.013203        -0.247079        -1.540231
 H         4.329821        -1.335382        -0.201525
 H         2.193976        -2.905975        -1.001281
 H         1.974283        -0.941347         2.162704
