19
Iteration:  3336
 C        -0.075269         0.294168        -0.188476
 C         1.420711         0.118660        -0.035719
 C         2.404164         1.395315         0.036244
 C         3.420786         0.384324         0.494720
 O         4.467316         0.787642         1.232217
 C         3.726242        -0.559317        -0.645846
 C         2.292589        -1.006212        -0.434963
 O         1.641770        -2.283870        -0.741520
 C         2.205681        -0.630060         0.961705
 H        -0.384462         1.412347        -0.141974
 H        -0.227818         0.079651        -1.273792
 H        -0.661760        -0.386406         0.403821
 H         2.418001         1.976571        -0.907763
 H         2.008480         1.991863         0.769938
 H         4.233472         1.581874         1.851380
 H         4.077073        -0.167165        -1.577294
 H         4.414668        -1.300450        -0.209501
 H         1.799296        -2.486497        -1.701496
 H         2.151071        -1.303214         1.806597
