19
Iteration:  4377charge 0 multiplicity 1
 C        -0.016732         0.290475        -0.255567
 C         1.408476         0.186851        -0.050770
 C         2.278209         1.303507        -0.072337
 C         3.425104         0.365324         0.511313
 O         4.439527         0.727846         1.355647
 C         3.662597        -0.577533        -0.680834
 C         2.296525        -1.020549        -0.393257
 O         1.747064        -2.254070        -0.681969
 C         2.246840        -0.562801         0.967566
 H        -0.553855         0.738778         0.621386
 H        -0.253854         1.018077        -1.036100
 H        -0.667047        -0.626605        -0.468424
 H         2.651783         1.861824        -1.038524
 H         1.974749         2.073836         0.643968
 H         4.750249         1.582191         1.080848
 H         3.764090        -0.120512        -1.638245
 H         4.517278        -1.217378        -0.538227
 H         1.551416        -2.373791        -1.632480
 H         1.981656        -0.923408         2.046266
