19
Iteration:   438charge 0 multiplicity 1
 C        -0.143693         0.103637        -0.099769
 C         1.405451         0.209316        -0.017954
 C         2.269446         1.405256        -0.094084
 C         3.454385         0.394686         0.506080
 O         4.447165         0.669687         1.286481
 C         3.681295        -0.546729        -0.701740
 C         2.283817        -1.042427        -0.324907
 O         1.763529        -2.127254        -0.968041
 C         2.252556        -0.417565         1.130912
 H        -0.447953         0.347586         0.916253
 H        -0.531409         0.750829        -0.899048
 H        -0.644001        -0.892203        -0.316859
 H         2.433891         1.953652        -1.040716
 H         2.164906         2.266182         0.627402
 H         5.227961         0.157922         0.914270
 H         3.739118        -0.016308        -1.683416
 H         4.364912        -1.369684        -0.575059
 H         2.218963        -2.967953        -0.734872
 H         1.972435        -0.747486         2.033484
