19
Iteration:  2549charge 0 multiplicity 1
 C        -0.167776         0.214985        -0.232509
 C         1.368185         0.139963        -0.105881
 C         2.373147         1.356311         0.055127
 C         3.397597         0.375991         0.569331
 O         4.532002         0.787681         1.305003
 C         3.636891        -0.506984        -0.727877
 C         2.256935        -1.012488        -0.417555
 O         1.850508        -2.237354        -0.757550
 C         2.203230        -0.528944         1.030606
 H        -0.661591         1.125457         0.134543
 H        -0.401229         0.048309        -1.392533
 H        -0.559885        -0.651483         0.248541
 H         2.622018         2.016500        -0.909715
 H         2.148486         2.034747         0.867504
 H         4.797413        -0.043904         1.596654
 H         3.677807         0.072444        -1.715930
 H         4.324373        -1.325870        -0.793749
 H         1.611528        -2.304417        -1.707131
 H         1.821843        -0.812112         1.986511
