19
Iteration:   731
 C        -0.093369         0.193415         0.054181
 C         1.386359         0.064941         0.059224
 C         2.305851         1.306019        -0.074465
 C         3.465644         0.319915         0.391488
 O         4.341854         0.876908         1.366554
 C         3.768228        -0.524872        -0.782992
 C         2.313447        -1.007084        -0.464596
 O         1.654016        -2.046832        -0.998333
 C         2.351716        -0.608130         0.979857
 H        -0.301507         0.977220         0.752888
 H        -0.338551         0.247706        -1.004828
 H        -0.672499        -0.731292         0.274082
 H         2.304534         1.909390        -0.965533
 H         2.127620         1.932916         0.892007
 H         4.636189         0.195798         2.005047
 H         4.035979         0.034254        -1.639872
 H         4.426971        -1.300462        -0.422807
 H         1.940033        -2.915350        -0.586237
 H         2.239339        -1.120243         1.956790
