19
Iteration:  1807charge 0 multiplicity 1
 C        -0.091599         0.301222        -0.157691
 C         1.422489         0.205627        -0.043371
 C         2.435627         1.300232        -0.125319
 C         3.406729         0.323735         0.525634
 O         4.471588         0.854102         1.337363
 C         3.663137        -0.630475        -0.677748
 C         2.253660        -1.035713        -0.447389
 O         1.746355        -2.243026        -0.814526
 C         2.237262        -0.584208         1.026690
 H        -0.580714         0.609061         0.858635
 H        -0.251916         1.096612        -0.883504
 H        -0.473187        -0.748707        -0.388773
 H         2.671170         1.831234        -1.040533
 H         2.139874         2.115622         0.455777
 H         4.194878         1.042939         2.241094
 H         4.035799        -0.332604        -1.663894
 H         4.291503        -1.484788        -0.461808
 H         1.104253        -2.018793        -1.490965
 H         1.773928        -1.027520         1.918739
