19
Iteration:  1414
 C        -0.057048         0.074696        -0.021674
 C         1.469002         0.224749        -0.086148
 C         2.399316         1.394632        -0.125062
 C         3.485506         0.399085         0.516552
 O         4.433721         0.884347         1.433572
 C         3.746529        -0.702584        -0.611872
 C         2.263360        -1.058123        -0.494660
 O         1.512260        -2.181355        -0.915487
 C         2.271572        -0.521603         0.977210
 H        -0.533151         0.633524         0.853651
 H        -0.572198         0.658607        -0.896472
 H        -0.399869        -1.057781        -0.083762
 H         2.628381         1.812611        -1.079097
 H         2.069857         2.233081         0.559915
 H         4.494007         1.786025         1.180748
 H         4.269901        -0.460645        -1.592809
 H         4.388806        -1.494335        -0.150967
 H         1.826980        -2.533899        -1.784514
 H         2.059710        -1.124198         1.975516
