19
Iteration:  2451charge 0 multiplicity 1
 C        -0.037180         0.117794        -0.095200
 C         1.450217         0.189233        -0.092894
 C         2.341962         1.359629        -0.108323
 C         3.469560         0.376679         0.516867
 O         4.398151         0.914295         1.305785
 C         3.729674        -0.667301        -0.509776
 C         2.286885        -1.058700        -0.423298
 O         1.644195        -2.195343        -0.968784
 C         2.214291        -0.449184         1.082902
 H        -0.459546         0.092663         0.887625
 H        -0.421081         0.731199        -0.989074
 H        -0.299368        -0.856178        -0.457989
 H         2.675280         1.733839        -1.070350
 H         2.064154         2.111700         0.542779
 H         5.072909         0.276146         1.222378
 H         4.244025        -0.270187        -1.488436
 H         4.427153        -1.388391        -0.078189
 H         0.801110        -1.931466        -1.386132
 H         2.061761        -0.982429         2.100925
