19
Iteration:  2810
 C        -0.102207         0.274642        -0.086133
 C         1.399135         0.218838        -0.053989
 C         2.338711         1.357002        -0.156407
 C         3.389484         0.458881         0.510238
 O         4.440889         0.789542         1.413625
 C         3.677311        -0.592061        -0.629030
 C         2.261284        -1.106271        -0.424633
 O         1.778629        -2.333206        -0.889046
 C         2.226141        -0.532671         1.011264
 H        -0.514470         0.939431         0.805024
 H        -0.512435         0.788823        -0.992682
 H        -0.524300        -0.762546        -0.007555
 H         2.486731         1.835940        -1.103915
 H         2.049221         2.236877         0.543715
 H         5.305223         0.921937         0.877914
 H         4.210318        -0.143082        -1.494587
 H         4.390658        -1.325086        -0.221798
 H         1.540724        -2.258232        -1.820471
 H         2.086726        -1.053432         2.091333
