19
Iteration:   536
 C        -0.059411         0.118379        -0.106811
 C         1.449273         0.149824         0.057899
 C         2.418485         1.387882        -0.031469
 C         3.433281         0.406189         0.555595
 O         4.533649         0.834682         1.256645
 C         3.586227        -0.433514        -0.785278
 C         2.220555        -1.071894        -0.367713
 O         1.667563        -2.235550        -1.019153
 C         2.197591        -0.542230         1.098341
 H        -0.545744         1.017380         0.319882
 H        -0.345047         0.273339        -1.182193
 H        -0.453555        -0.812761         0.435161
 H         2.695805         1.726434        -1.021467
 H         2.049262         2.184947         0.734571
 H         4.652000         0.294796         2.088235
 H         3.745402         0.099711        -1.682674
 H         4.355795        -1.225704        -0.579571
 H         2.182404        -3.059953        -0.781950
 H         1.803681        -0.824879         1.933893
