19
Iteration:  3983
 C        -0.142765         0.198941        -0.257283
 C         1.402118         0.191646        -0.057113
 C         2.412609         1.300037        -0.067315
 C         3.487036         0.314966         0.584494
 O         4.575168         0.968451         1.200609
 C         3.761884        -0.727728        -0.511636
 C         2.239776        -1.072100        -0.331638
 O         1.600659        -2.217211        -0.898428
 C         2.147022        -0.540819         1.030386
 H        -0.623888         0.694696         0.632503
 H        -0.564420         0.722048        -1.137438
 H        -0.597301        -0.744086        -0.218605
 H         2.855884         1.849341        -0.973145
 H         2.214846         1.992767         0.733636
 H         4.180003         1.634069         1.894097
 H         4.111500        -0.436732        -1.501811
 H         4.387327        -1.525866        -0.017598
 H         1.953809        -2.088201        -1.813089
 H         1.890219        -0.672213         2.003967
