19
Iteration:  3469
 C        -0.040183         0.477887        -0.156033
 C         1.385596         0.135930        -0.102903
 C         2.299426         1.351800        -0.108362
 C         3.356702         0.374441         0.534651
 O         4.539424         0.768551         1.287459
 C         3.675851        -0.625496        -0.672844
 C         2.223501        -1.136880        -0.329154
 O         1.932058        -2.374607        -0.878468
 C         2.136424        -0.508158         1.037267
 H        -0.375446         1.047231         0.842269
 H        -0.464295         1.084312        -0.996164
 H        -0.611859        -0.460637         0.076427
 H         2.512146         1.894762        -0.996980
 H         1.955999         2.020934         0.698200
 H         4.192492         1.602632         1.779231
 H         3.878111        -0.119437        -1.650709
 H         4.381887        -1.438437        -0.464805
 H         0.983882        -2.283258        -1.158247
 H         1.883670        -1.071825         2.009400
