19
Iteration:  4431
 C        -0.055126         0.191826        -0.281652
 C         1.415410         0.155352        -0.037854
 C         2.390441         1.357615         0.020205
 C         3.410566         0.375341         0.591896
 O         4.490143         0.998278         1.152770
 C         3.655310        -0.688582        -0.593882
 C         2.257392        -0.988075        -0.322968
 O         1.742761        -2.227625        -0.897629
 C         2.165219        -0.638154         1.109966
 H        -0.439314         0.943168         0.468175
 H        -0.309484         0.600879        -1.256224
 H        -0.671315        -0.670400        -0.118397
 H         2.765922         1.818708        -0.925783
 H         2.136646         2.077721         0.780972
 H         4.882959         0.365835         1.740868
 H         4.058052        -0.262766        -1.546304
 H         4.243014        -1.535527        -0.259637
 H         1.123960        -2.031398        -1.634441
 H         1.927405        -1.384682         1.958221
