19
Iteration:  1025charge 0 multiplicity 1
 C        -0.130856         0.302263        -0.200532
 C         1.320641         0.250898         0.038685
 C         2.250199         1.486143         0.233264
 C         3.370552         0.384235         0.525273
 O         4.535702         0.809424         1.096899
 C         3.647358        -0.471247        -0.660494
 C         2.338723        -1.182856        -0.375424
 O         1.925579        -2.317619        -0.983381
 C         2.172440        -0.672065         1.015515
 H        -0.567357         0.936051         0.532406
 H        -0.454971         0.842741        -1.100310
 H        -0.522477        -0.684672        -0.104207
 H         2.577344         2.133974        -0.694968
 H         2.062968         2.089875         1.079377
 H         4.951385         0.088094         1.528825
 H         3.839506        -0.020144        -1.649061
 H         4.390680        -1.219931        -0.351754
 H         1.012235        -2.605133        -0.779038
 H         2.022608        -1.169768         1.914893
