19
Iteration:  4053
 C        -0.060501         0.291438        -0.259097
 C         1.365240         0.261655        -0.136349
 C         2.424353         1.388004        -0.070176
 C         3.404908         0.410639         0.512467
 O         4.427539         0.740263         1.445507
 C         3.669544        -0.642732        -0.708917
 C         2.235371        -1.052134        -0.408542
 O         1.828822        -2.307485        -0.757898
 C         2.192039        -0.499340         0.991196
 H        -0.622357         1.008099         0.347319
 H        -0.441540         0.427352        -1.282738
 H        -0.543190        -0.730500         0.049360
 H         2.586385         1.967333        -1.024639
 H         2.186481         2.084759         0.848155
 H         5.105291         1.301931         0.932372
 H         3.863200        -0.367845        -1.736112
 H         4.168259        -1.520165        -0.373750
 H         0.888568        -2.597445        -0.707084
 H         2.252787        -0.962381         2.023963
