19
Iteration:    27
 C        -0.109925         0.095009        -0.049925
 C         1.442316         0.198149         0.059576
 C         2.353434         1.471719         0.091324
 C         3.466779         0.335820         0.499793
 O         4.487918         0.845076         1.273091
 C         3.714953        -0.556063        -0.766169
 C         2.232905        -0.954280        -0.528751
 O         1.560404        -2.241143        -0.812588
 C         2.355447        -0.651045         0.935314
 H        -0.567203         0.462190         0.872533
 H        -0.376138         0.664783        -0.927508
 H        -0.448557        -0.922144        -0.269879
 H         2.527432         2.010093        -0.890861
 H         2.114445         1.953086         1.004237
 H         4.374772         1.777241         1.379620
 H         3.992847        -0.108524        -1.722646
 H         4.478345        -1.311951        -0.710386
 H         1.848865        -2.648874        -1.617923
 H         2.120786        -1.381200         1.744543
