19
Iteration:   836
 C        -0.076577         0.016380        -0.222477
 C         1.388323         0.136010        -0.034363
 C         2.407314         1.372526         0.096733
 C         3.456923         0.405547         0.553847
 O         4.491252         0.842764         1.431864
 C         3.587121        -0.400966        -0.860053
 C         2.252103        -1.010965        -0.422485
 O         1.568215        -2.117475        -0.879446
 C         2.375541        -0.646851         0.981376
 H        -0.594301         0.473506         0.630287
 H        -0.415609         0.612170        -1.049665
 H        -0.335785        -1.050546        -0.243475
 H         2.403902         2.166142        -0.687952
 H         2.079004         1.870698         0.960734
 H         5.336235         0.576152         0.974906
 H         3.689469         0.167598        -1.846426
 H         4.373350        -1.172556        -0.868337
 H         1.808816        -3.000316        -0.493212
 H         2.320081        -1.268619         1.796403
