19
Iteration:  2391
 C        -0.040885         0.331134        -0.243671
 C         1.419061         0.121428         0.007590
 C         2.295727         1.397491         0.010999
 C         3.383755         0.351463         0.517285
 O         4.463609         0.786196         1.334118
 C         3.665481        -0.525764        -0.726406
 C         2.256697        -1.068360        -0.385637
 O         1.776414        -2.306061        -0.749785
 C         2.248417        -0.644755         1.006230
 H        -0.503043         1.263786         0.164189
 H        -0.109633         0.491648        -1.267218
 H        -0.737311        -0.549005        -0.040639
 H         2.472071         1.716504        -1.045084
 H         1.957634         2.306889         0.645357
 H         4.892932         1.601105         1.081197
 H         3.795380        -0.079851        -1.663449
 H         4.492750        -1.268159        -0.530051
 H         1.513133        -2.182543        -1.663226
 H         1.961491        -1.118551         1.867710
