19
Iteration:  4847charge 0 multiplicity 1
 C        -0.139121         0.375787        -0.124857
 C         1.347420         0.074987        -0.020017
 C         2.301358         1.340954        -0.014561
 C         3.405612         0.381475         0.565225
 O         4.474230         0.881441         1.271094
 C         3.708037        -0.586696        -0.552174
 C         2.314557        -1.113845        -0.459398
 O         1.836644        -2.296972        -0.999135
 C         2.293306        -0.626149         0.995107
 H        -0.449273         1.239992         0.470967
 H        -0.446303         0.643596        -1.148206
 H        -0.788492        -0.471049         0.327115
 H         2.529453         1.803052        -0.941523
 H         1.984986         2.141861         0.702754
 H         4.112553         0.974101         2.231229
 H         3.980687        -0.114166        -1.554609
 H         4.409383        -1.436757        -0.214261
 H         1.291359        -2.013179        -1.756963
 H         1.951674        -0.858032         1.972522
