19
Iteration:  1860
 C        -0.037743         0.156352        -0.393854
 C         1.427133         0.187797        -0.003035
 C         2.363308         1.367998         0.052135
 C         3.437032         0.336664         0.566757
 O         4.642860         0.918580         1.109812
 C         3.613137        -0.728574        -0.499434
 C         2.178651        -1.087280        -0.284931
 O         1.725048        -2.095214        -1.016022
 C         2.154749        -0.566775         1.188328
 H        -0.590925         0.901471         0.297730
 H        -0.270495         0.595634        -1.365067
 H        -0.455260        -0.826144        -0.316279
 H         2.472652         1.870564        -0.996405
 H         1.957290         2.014792         0.890012
 H         4.748842         0.758446         2.070022
 H         3.848249        -0.379605        -1.561737
 H         4.463212        -1.421961        -0.173557
 H         0.785001        -2.192706        -0.893099
 H         1.842989        -1.054318         2.145702
