19
Iteration:   988charge 0 multiplicity 1
 C        -0.057657         0.092898        -0.224394
 C         1.387088         0.181171         0.024306
 C         2.315103         1.370344         0.032976
 C         3.454025         0.398827         0.540627
 O         4.490691         0.756850         1.342917
 C         3.549615        -0.422545        -0.768057
 C         2.225315        -0.979308        -0.379407
 O         1.694132        -2.174442        -0.967823
 C         2.363746        -0.593451         1.030099
 H        -0.597599         0.544542         0.655413
 H        -0.298376         0.478752        -1.224260
 H        -0.478832        -0.978904        -0.310650
 H         2.577439         1.992936        -0.989642
 H         2.011373         2.134485         0.833203
 H         5.224667         0.173956         1.387186
 H         3.815376         0.219919        -1.645790
 H         4.288355        -1.268002        -0.667284
 H         1.749931        -2.678745        -0.104720
 H         2.212271        -1.076967         2.105391
