19
Iteration:    99
 C        -0.244397         0.211367        -0.035413
 C         1.321323         0.152021         0.017529
 C         2.385884         1.318659         0.050025
 C         3.487937         0.386972         0.472961
 O         4.536511         0.902205         1.238266
 C         3.636493        -0.602446        -0.664870
 C         2.224064        -1.034577        -0.371686
 O         1.773737        -2.149395        -1.072129
 C         2.246727        -0.574532         1.050888
 H        -0.618765         0.864363         0.782834
 H        -0.710426         0.375444        -1.015473
 H        -0.566721        -0.817087         0.246402
 H         2.586179         1.874351        -0.841374
 H         2.167065         1.905197         0.945624
 H         5.403347         0.600128         0.930616
 H         3.952581        -0.066932        -1.571190
 H         4.352829        -1.415601        -0.543954
 H         1.950345        -2.922530        -0.536676
 H         2.132662        -1.290542         1.821569
