19
Iteration:  3038charge 0 multiplicity 1
 C        -0.188739         0.249932        -0.281803
 C         1.420367         0.225665         0.034467
 C         2.347206         1.441144         0.009337
 C         3.406039         0.409970         0.583910
 O         4.572002         0.761588         1.124135
 C         3.710920        -0.567910        -0.515726
 C         2.279639        -1.074781        -0.437724
 O         1.715645        -2.330447        -0.815801
 C         2.211046        -0.624658         1.038944
 H        -0.785768         0.806493         0.441731
 H        -0.263783         0.953066        -1.167538
 H        -0.604359        -0.745358        -0.524957
 H         2.555608         1.976978        -0.934396
 H         2.029448         2.149316         0.760983
 H         4.497675         1.511775         1.670027
 H         4.297325        -0.265662        -1.435132
 H         4.402169        -1.291520        -0.056412
 H         1.454656        -2.321193        -1.761109
 H         1.894291        -0.966956         2.016991
