19
Iteration:  3647charge 0 multiplicity 1
 C        -0.120768         0.338894        -0.125754
 C         1.397938         0.149384        -0.027868
 C         2.374982         1.298299        -0.148266
 C         3.453423         0.358101         0.489050
 O         4.420984         0.793250         1.305595
 C         3.794150        -0.603543        -0.664457
 C         2.224232        -1.092213        -0.387793
 O         1.773078        -2.241728        -0.855717
 C         2.231541        -0.502598         1.015134
 H        -0.426431         0.784650         0.805418
 H        -0.429123         0.875574        -1.006293
 H        -0.695834        -0.646807        -0.325854
 H         2.875429         1.698468        -1.083000
 H         2.210565         2.212581         0.571188
 H         3.905463         1.392311         1.958109
 H         4.212844        -0.244911        -1.631190
 H         4.504475        -1.403579        -0.364220
 H         0.820298        -2.480402        -0.796352
 H         1.971011        -0.944841         1.988299
