19
Iteration:  4599
 C        -0.050627         0.060185        -0.232545
 C         1.416127         0.208669        -0.013346
 C         2.370424         1.412326         0.018945
 C         3.442123         0.406418         0.502098
 O         4.614562         0.800541         1.316741
 C         3.703915        -0.575871        -0.590870
 C         2.232174        -1.028005        -0.499589
 O         1.573568        -2.191786        -0.795047
 C         2.226014        -0.562999         0.942920
 H        -0.763162         0.199735         0.558955
 H        -0.452506         0.627553        -1.082789
 H        -0.280746        -0.958543        -0.626719
 H         2.458794         1.918058        -0.979935
 H         1.910886         1.951370         0.778223
 H         4.357081         1.662061         1.728090
 H         4.352782        -0.226673        -1.459932
 H         4.248885        -1.308360         0.072265
 H         1.245273        -2.082346        -1.709410
 H         2.148450        -1.143228         1.964731
