19
Iteration:  3862
 C        -0.201499         0.300584        -0.273369
 C         1.361469         0.173140        -0.062509
 C         2.385121         1.283170        -0.086279
 C         3.385145         0.383470         0.592687
 O         4.616500         0.917474         1.183412
 C         3.782547        -0.713989        -0.473563
 C         2.259604        -1.086416        -0.309381
 O         1.710969        -2.230619        -0.975284
 C         2.254004        -0.619644         1.107555
 H        -0.653206         1.004617         0.490045
 H        -0.469151         0.599705        -1.316303
 H        -0.672354        -0.607145        -0.015284
 H         2.669552         1.789614        -1.079570
 H         1.881001         1.961760         0.589294
 H         4.491401         1.630140         1.810307
 H         4.053926        -0.327799        -1.399526
 H         4.419517        -1.424709         0.053563
 H         0.894686        -1.928268        -1.397288
 H         1.754179        -0.909910         2.106088
