19
Iteration:   356
 C        -0.031742         0.230563        -0.133619
 C         1.418391         0.088797         0.195001
 C         2.261346         1.317391        -0.012844
 C         3.387922         0.395029         0.528976
 O         4.500309         0.898039         1.288940
 C         3.721231        -0.581371        -0.704892
 C         2.216031        -1.073949        -0.432001
 O         1.606986        -2.132423        -1.091466
 C         2.333185        -0.647819         1.150587
 H        -0.425617         1.204901         0.160815
 H        -0.137366         0.493816        -1.182881
 H        -0.577605        -0.634668         0.098979
 H         2.251729         1.734881        -1.002867
 H         1.882203         1.947150         0.748272
 H         5.183286         1.227191         0.689363
 H         4.035956        -0.134663        -1.549153
 H         4.459587        -1.324557        -0.382241
 H         1.803739        -3.032497        -0.861596
 H         2.435553        -1.042956         2.147018
