19
Iteration:  2714charge 0 multiplicity 1
 C        -0.183190         0.174701        -0.357288
 C         1.342788         0.162992         0.039606
 C         2.413368         1.410185         0.009097
 C         3.442702         0.370500         0.510296
 O         4.519543         0.852224         1.326377
 C         3.682568        -0.537707        -0.769204
 C         2.274460        -1.019300        -0.386736
 O         1.706448        -2.299686        -0.725864
 C         2.326023        -0.572105         0.998023
 H        -0.574793         0.994128         0.237928
 H        -0.394643         0.455381        -1.397172
 H        -0.580404        -0.738122        -0.033254
 H         2.594818         2.142007        -0.785730
 H         2.155429         2.106159         0.765671
 H         4.416067         0.231325         2.148922
 H         3.866772        -0.115381        -1.756481
 H         4.436976        -1.277482        -0.687312
 H         1.202448        -2.138777        -1.571289
 H         1.995802        -0.944024         2.069839
