19
Iteration:   608charge 0 multiplicity 1
 C        -0.097878         0.209175        -0.091596
 C         1.438126         0.070310        -0.047944
 C         2.463004         1.288274         0.032193
 C         3.459488         0.316439         0.502173
 O         4.376906         1.043545         1.290947
 C         3.643135        -0.550252        -0.756532
 C         2.296010        -1.065172        -0.363584
 O         1.627244        -2.107950        -1.008553
 C         2.296031        -0.678451         1.058131
 H        -0.430787         0.617617         0.840057
 H        -0.504336         0.889277        -0.808535
 H        -0.505697        -0.791337        -0.133736
 H         2.717271         1.689311        -0.940364
 H         2.196766         1.976178         0.805361
 H         5.074919         0.494503         1.640486
 H         3.714322        -0.080372        -1.745425
 H         4.407781        -1.246021        -0.504882
 H         1.746182        -2.938899        -0.468424
 H         1.849771        -1.221594         1.911915
