19
Iteration:   228
 C        -0.143117         0.289715        -0.003259
 C         1.397953         0.103613         0.017166
 C         2.351306         1.409909         0.085619
 C         3.457404         0.398536         0.515762
 O         4.505279         0.919588         1.322202
 C         3.635905        -0.646960        -0.749103
 C         2.272376        -1.139185        -0.430311
 O         1.793980        -2.264655        -1.136623
 C         2.219577        -0.587583         1.075006
 H        -0.408810         0.665187         1.007007
 H        -0.430702         0.943424        -0.889282
 H        -0.797754        -0.606866        -0.100461
 H         2.610120         2.040004        -0.831335
 H         1.954691         2.058299         0.975934
 H         4.948717         1.650150         0.848132
 H         3.744567        -0.348183        -1.888166
 H         4.371623        -1.455517        -0.511871
 H         1.232155        -2.797200        -0.505697
 H         2.009626        -1.138315         1.907442
