19
Iteration:  1789
 C        -0.082234         0.314718        -0.093888
 C         1.393888         0.182995        -0.076719
 C         2.427511         1.350304        -0.143337
 C         3.482648         0.352930         0.465663
 O         4.408122         0.768253         1.470262
 C         3.770745        -0.565121        -0.714999
 C         2.220036        -1.076876        -0.478977
 O         1.635081        -2.312526        -0.750481
 C         2.287277        -0.514473         0.933605
 H        -0.409331         0.805046         0.759129
 H        -0.463382         1.005669        -0.862377
 H        -0.669258        -0.630415        -0.179208
 H         2.704233         1.650836        -1.165852
 H         2.212670         2.228329         0.608636
 H         3.846613         1.380793         1.965642
 H         3.993618        -0.003714        -1.648826
 H         4.477155        -1.399242        -0.680919
 H         1.724683        -2.430810        -1.700703
 H         2.205984        -1.012460         1.818998
