19
Iteration:  4832charge 0 multiplicity 1
 C        -0.107811         0.449910        -0.072756
 C         1.375512         0.165038         0.071438
 C         2.282964         1.316571        -0.065961
 C         3.376948         0.432949         0.509251
 O         4.472671         0.918485         1.338787
 C         3.768040        -0.554938        -0.624763
 C         2.246843        -1.181155        -0.427631
 O         1.828758        -2.432806        -1.064153
 C         2.203590        -0.647756         1.056811
 H        -0.268267         1.279788         0.625123
 H        -0.139410         0.842371        -1.092288
 H        -0.817601        -0.334147        -0.070223
 H         2.389819         1.804362        -1.091611
 H         1.954264         1.936013         0.730140
 H         4.204707         1.337164         2.093373
 H         4.267141        -0.110656        -1.611478
 H         4.500055        -1.205410        -0.182092
 H         1.382197        -2.182329        -1.911536
 H         2.266889        -1.487636         1.877175
