19
Iteration:  4656
 C        -0.126899         0.318534        -0.039253
 C         1.430076         0.168773        -0.017507
 C         2.376024         1.396916        -0.101125
 C         3.362201         0.417395         0.598679
 O         4.487147         0.806012         1.327143
 C         3.678072        -0.563087        -0.657444
 C         2.215851        -1.063145        -0.468886
 O         1.807458        -2.382907        -0.921212
 C         2.255085        -0.597612         0.971973
 H        -0.484637         1.323801         0.327710
 H        -0.269194         0.365949        -1.157993
 H        -0.655551        -0.453853         0.437786
 H         2.473152         1.788000        -1.135055
 H         1.972631         2.238921         0.412073
 H         4.233635         1.041360         2.211885
 H         4.091257         0.062821        -1.476819
 H         4.318099        -1.392747        -0.482748
 H         1.733327        -2.267889        -1.896937
 H         1.907215        -0.991270         1.948547
