19
Iteration:   530charge 0 multiplicity 1
 C        -0.030295         0.173757        -0.138375
 C         1.408725         0.156501         0.061204
 C         2.416297         1.376208         0.013413
 C         3.401242         0.421309         0.552632
 O         4.547903         0.902654         1.260050
 C         3.581079        -0.464444        -0.737151
 C         2.229922        -1.110330        -0.343965
 O         1.612662        -2.265904        -1.064864
 C         2.284127        -0.586735         1.053587
 H        -0.532543         1.012692         0.360538
 H        -0.199608         0.108302        -1.214863
 H        -0.464959        -0.703118         0.278495
 H         2.591217         1.921997        -0.954825
 H         2.022184         2.114611         0.656578
 H         4.683562         0.399716         2.035261
 H         3.788208         0.135017        -1.686503
 H         4.243883        -1.308581        -0.528237
 H         2.087668        -3.032019        -0.679238
 H         2.028227        -0.996046         2.182261
