19
Iteration:  2785
 C        -0.118000         0.170918        -0.082398
 C         1.415762         0.200853        -0.073940
 C         2.402698         1.353328        -0.059944
 C         3.413340         0.351831         0.555821
 O         4.444897         0.943371         1.284164
 C         3.688077        -0.727233        -0.543348
 C         2.268377        -1.067684        -0.426490
 O         1.761782        -2.194768        -0.966090
 C         2.137809        -0.534298         1.094811
 H        -0.515338         0.960978         0.528052
 H        -0.506771         0.490038        -1.046322
 H        -0.552348        -0.840976         0.177952
 H         2.572783         1.854448        -1.020927
 H         2.298756         2.224237         0.584166
 H         5.310393         0.938688         0.729299
 H         4.328108        -0.387863        -1.329448
 H         4.306857        -1.594547        -0.172521
 H         1.442091        -2.138289        -1.890452
 H         1.820746        -1.025368         1.901286
