19
Iteration:   341
 C        -0.167123         0.151987        -0.182502
 C         1.330296         0.063090         0.138845
 C         2.239716         1.266978         0.017013
 C         3.486315         0.406606         0.542084
 O         4.612027         0.812850         1.272014
 C         3.665996        -0.565266        -0.597483
 C         2.251718        -1.025934        -0.401303
 O         1.606140        -2.058322        -1.065850
 C         2.354362        -0.531208         1.112796
 H        -0.619234         1.045097         0.289915
 H        -0.248782         0.182582        -1.272364
 H        -0.745002        -0.754641         0.146199
 H         2.430421         1.615393        -1.039566
 H         2.123711         2.205627         0.582466
 H         5.148378         1.302197         0.563285
 H         3.936321        -0.175484        -1.669242
 H         4.293862        -1.381088        -0.230329
 H         2.364980        -2.711964        -1.090494
 H         2.195749        -1.161320         1.992177
