19
Iteration:  4174
 C        -0.064200         0.280274        -0.306053
 C         1.421362         0.118981        -0.081078
 C         2.348050         1.362340        -0.120114
 C         3.436404         0.392816         0.548155
 O         4.509113         0.957663         1.352427
 C         3.659608        -0.692174        -0.583756
 C         2.273488        -1.100787        -0.310393
 O         1.570407        -2.247712        -0.908018
 C         2.285200        -0.492388         1.080315
 H        -0.604335         0.730243         0.507775
 H        -0.245171         0.945903        -1.147795
 H        -0.482528        -0.730317        -0.529835
 H         2.553068         1.843999        -1.086312
 H         2.119509         2.198625         0.596256
 H         4.921791         0.200665         1.696368
 H         3.970410        -0.342875        -1.573934
 H         4.344725        -1.430189        -0.203120
 H         2.250952        -2.941302        -0.990619
 H         1.885854        -0.825823         2.016259
