19
Iteration:  3813
 C        -0.115456         0.150638        -0.159894
 C         1.413151         0.244779        -0.102251
 C         2.425995         1.412616        -0.186332
 C         3.470343         0.306918         0.485090
 O         4.481569         0.815996         1.304868
 C         3.708107        -0.685919        -0.507770
 C         2.278653        -1.083515        -0.303570
 O         1.707248        -2.186548        -0.910040
 C         2.197678        -0.487691         1.004182
 H        -0.567041         0.627006         0.681467
 H        -0.438018         0.542529        -1.100922
 H        -0.519502        -0.944066        -0.154229
 H         2.689099         1.787341        -1.188397
 H         2.298091         2.229575         0.600117
 H         4.184215         1.528641         1.942095
 H         4.041455        -0.262894        -1.518831
 H         4.237377        -1.549514        -0.067015
 H         0.752287        -2.052597        -1.093261
 H         2.080248        -0.845373         1.942675
