19
Iteration:  3290
 C        -0.116880         0.273134        -0.160859
 C         1.434105         0.172650        -0.056255
 C         2.387962         1.398093        -0.143603
 C         3.377402         0.347031         0.497059
 O         4.506928         0.780678         1.287342
 C         3.660071        -0.620500        -0.605882
 C         2.232764        -1.047111        -0.371882
 O         1.820982        -2.307728        -0.840373
 C         2.221226        -0.510417         1.020808
 H        -0.342295         1.193436         0.433404
 H        -0.564927         0.585704        -1.185130
 H        -0.651068        -0.572674         0.300451
 H         2.766148         1.818389        -1.058202
 H         2.137173         2.161056         0.575145
 H         4.114911         1.134852         2.169378
 H         3.844636         0.024237        -1.482384
 H         4.430066        -1.401161        -0.510752
 H         1.102442        -2.246318        -1.491763
 H         1.879854        -1.000364         2.062526
