19
Iteration:  4017charge 0 multiplicity 1
 C         0.002143         0.344948        -0.259948
 C         1.390121         0.136464         0.012960
 C         2.402473         1.281241        -0.110330
 C         3.367193         0.357113         0.535868
 O         4.457637         0.901262         1.324412
 C         3.746392        -0.599846        -0.549332
 C         2.277509        -1.100033        -0.375950
 O         1.632823        -2.335840        -0.904830
 C         2.260484        -0.586286         1.066236
 H        -0.319002         0.990350         0.582291
 H        -0.098295         0.920817        -1.200238
 H        -0.505000        -0.637947        -0.274643
 H         2.547179         1.710385        -1.174657
 H         1.995906         2.113902         0.505096
 H         4.432143         1.875417         1.099318
 H         4.037990        -0.363807        -1.558804
 H         4.439235        -1.401394        -0.171514
 H         0.864679        -1.858547        -1.327372
 H         2.116223        -0.983536         2.098258
