19
Iteration:  2208charge 0 multiplicity 1
 C        -0.128956         0.279398        -0.326769
 C         1.344649         0.195738        -0.120435
 C         2.339509         1.364396        -0.052189
 C         3.398744         0.409071         0.492099
 O         4.498885         0.674785         1.369086
 C         3.690347        -0.616345        -0.651433
 C         2.318449        -1.078530        -0.299344
 O         1.741995        -2.222966        -0.796615
 C         2.164540        -0.455892         1.095908
 H        -0.581393         0.992423         0.239129
 H        -0.350918         0.803546        -1.305990
 H        -0.536543        -0.739392        -0.323797
 H         2.482744         1.990778        -1.008600
 H         1.984312         2.087767         0.803146
 H         5.130667         1.108860         0.672189
 H         3.905540        -0.082281        -1.572875
 H         4.577844        -1.221499        -0.327345
 H         2.387577        -2.939673        -0.964835
 H         1.925175        -0.980299         2.104603
