19
Iteration:   892
 C        -0.254988         0.210303         0.023214
 C         1.280448         0.112437         0.041496
 C         2.313034         1.372670         0.018533
 C         3.435441         0.350455         0.619778
 O         4.554409         0.870760         1.210177
 C         3.686667        -0.531241        -0.674131
 C         2.241302        -1.025387        -0.452439
 O         1.833201        -2.124674        -1.133712
 C         2.317656        -0.615376         1.037670
 H        -0.452105         1.000792         0.714466
 H        -0.553480         0.550317        -0.968025
 H        -0.907346        -0.687138         0.223346
 H         2.548647         1.626158        -1.011549
 H         1.835612         2.088085         0.615562
 H         5.013526         0.154360         1.601913
 H         3.909093        -0.177546        -1.728855
 H         4.297522        -1.326182        -0.247864
 H         2.135968        -2.920123        -0.646252
 H         2.052091        -1.290584         1.960738
