19
Iteration:   751charge 0 multiplicity 1
 C        -0.102331         0.230348         0.051299
 C         1.393702         0.137730         0.009879
 C         2.375753         1.348731         0.081741
 C         3.425100         0.425367         0.584205
 O         4.467174         1.050419         1.263847
 C         3.751242        -0.599602        -0.661328
 C         2.232410        -1.084837        -0.532968
 O         1.638795        -2.177666        -1.120875
 C         2.278915        -0.733165         0.952022
 H        -0.418762         0.917816         0.824786
 H        -0.675529         0.443460        -0.898677
 H        -0.466303        -0.814753         0.349932
 H         2.651403         1.619116        -0.925694
 H         1.940270         2.093202         0.798603
 H         4.809285         0.433905         1.871418
 H         4.019397        -0.145394        -1.636787
 H         4.424733        -1.342396        -0.322023
 H         1.968616        -3.040455        -0.809589
 H         2.102367        -1.378051         1.746230
