19
Iteration:  4229
 C        -0.076820         0.244230        -0.273201
 C         1.385663         0.191588        -0.134878
 C         2.345643         1.440380        -0.082910
 C         3.433345         0.402381         0.538995
 O         4.569522         0.823967         1.415618
 C         3.727781        -0.573152        -0.621390
 C         2.347863        -1.078359        -0.391487
 O         1.638567        -2.366561        -0.842546
 C         2.146525        -0.456134         0.949760
 H        -0.498421         0.816519         0.512265
 H        -0.491824         0.634228        -1.198168
 H        -0.735356        -0.641556        -0.220605
 H         2.545293         2.016229        -0.968496
 H         1.815702         2.024104         0.738889
 H         5.357732         0.341451         1.210371
 H         3.862870        -0.149187        -1.630885
 H         4.294203        -1.481569        -0.275818
 H         1.071799        -2.538390        -0.038944
 H         2.046217        -0.961318         2.000019
