19
Iteration:  3196charge 0 multiplicity 1
 C        -0.118307         0.346050        -0.342224
 C         1.392146         0.104354         0.024978
 C         2.353902         1.280848        -0.006979
 C         3.432348         0.395504         0.552049
 O         4.550090         0.849936         1.222396
 C         3.684971        -0.630552        -0.616137
 C         2.197097        -1.089379        -0.394791
 O         1.670190        -2.252336        -0.765005
 C         2.298630        -0.579888         1.032445
 H        -0.705415         0.900981         0.466624
 H        -0.199432         1.073791        -1.093133
 H        -0.744713        -0.525323        -0.592853
 H         2.507420         1.693438        -0.958429
 H         2.023981         2.102695         0.654807
 H         4.350601         1.571516         1.815653
 H         4.161185        -0.151096        -1.510856
 H         4.543885        -1.271729        -0.311454
 H         1.804554        -2.368981        -1.738650
 H         2.157376        -1.091024         2.081940
