19
Iteration:  2808
 C        -0.089540         0.271754        -0.085698
 C         1.403053         0.230333        -0.041086
 C         2.342629         1.345667        -0.157074
 C         3.374881         0.464412         0.510810
 O         4.447118         0.796993         1.401611
 C         3.677147        -0.595912        -0.602791
 C         2.241694        -1.094860        -0.435218
 O         1.783926        -2.331886        -0.891695
 C         2.230502        -0.550852         1.009237
 H        -0.530802         0.901899         0.706971
 H        -0.547268         0.763885        -0.918759
 H        -0.540304        -0.759006         0.016217
 H         2.526255         1.854536        -1.077277
 H         2.033820         2.201716         0.506785
 H         5.250731         0.910079         0.893163
 H         4.205600        -0.244273        -1.475515
 H         4.414172        -1.340144        -0.242316
 H         1.558084        -2.158406        -1.819567
 H         2.078271        -0.995725         1.999844
