19
Iteration:  2540
 C        -0.159845         0.231174        -0.228304
 C         1.374314         0.162539        -0.076521
 C         2.282623         1.437330         0.056015
 C         3.431358         0.367936         0.546322
 O         4.584464         0.785852         1.310328
 C         3.665734        -0.524076        -0.742879
 C         2.295372        -1.042667        -0.423566
 O         1.808626        -2.295771        -0.777740
 C         2.145105        -0.517348         1.030506
 H        -0.487367         1.193608         0.242259
 H        -0.456661         0.198058        -1.424498
 H        -0.771897        -0.525817         0.238934
 H         2.598031         1.986837        -0.858312
 H         1.878298         1.958026         0.874519
 H         4.914588         0.145540         1.878346
 H         3.667015         0.049557        -1.774305
 H         4.521040        -1.191705        -0.639550
 H         1.847910        -2.562688        -1.717873
 H         1.901637        -1.041692         1.846357
