19
Iteration:  3913charge 0 multiplicity 1
 C        -0.130732         0.212810        -0.336054
 C         1.357189         0.148119        -0.099614
 C         2.445643         1.427748         0.006851
 C         3.391820         0.389939         0.461235
 O         4.560156         0.735680         1.401009
 C         3.656453        -0.521879        -0.766666
 C         2.290181        -1.102555        -0.341780
 O         1.627503        -2.314432        -0.685870
 C         2.288687        -0.502114         0.966557
 H        -0.394671         1.122333         0.192723
 H        -0.321799         0.506702        -1.379191
 H        -0.787447        -0.559872         0.149300
 H         2.719509         1.952465        -0.943545
 H         2.096195         2.169219         0.720235
 H         4.160586         1.500098         1.996477
 H         3.729381         0.128145        -1.728290
 H         4.406586        -1.285313        -0.541865
 H         2.028235        -2.589971        -1.540567
 H         2.084148        -0.892916         2.072675
