19
Iteration:  2547charge 0 multiplicity 1
 C        -0.174933         0.227350        -0.239139
 C         1.374672         0.128624        -0.108473
 C         2.352858         1.375348         0.054647
 C         3.401144         0.368311         0.568911
 O         4.546890         0.791804         1.304886
 C         3.644635        -0.509117        -0.736453
 C         2.265641        -1.013457        -0.419746
 O         1.846803        -2.239955        -0.760395
 C         2.189819        -0.518014         1.024740
 H        -0.635925         1.114701         0.170817
 H        -0.362475         0.053820        -1.296734
 H        -0.630710        -0.644704         0.250169
 H         2.621910         1.987666        -0.915010
 H         2.100345         2.034624         0.932193
 H         4.819153        -0.065366         1.676063
 H         3.644786         0.016124        -1.676748
 H         4.378937        -1.314841        -0.804032
 H         1.644332        -2.409275        -1.724216
 H         1.794163        -0.878073         2.068019
