19
Iteration:  1733
 C        -0.182572         0.287952        -0.210579
 C         1.387189         0.226015        -0.069206
 C         2.425322         1.373366        -0.023611
 C         3.414185         0.363087         0.541873
 O         4.549891         0.831087         1.366705
 C         3.674510        -0.640063        -0.579652
 C         2.192215        -1.106227        -0.381915
 O         1.769799        -2.266960        -0.913495
 C         2.177717        -0.523788         1.040921
 H        -0.640747         0.990793         0.444207
 H        -0.457278         0.215975        -1.266874
 H        -0.463788        -0.708474         0.277490
 H         2.734525         1.934465        -0.937883
 H         2.113627         2.268183         0.677734
 H         5.264532         0.843163         0.750798
 H         3.888238        -0.261049        -1.644038
 H         4.338497        -1.491989        -0.338327
 H         1.582314        -2.122922        -1.875898
 H         1.775428        -1.030535         1.976676
