19
Iteration:  4016
 C         0.017110         0.338830        -0.262856
 C         1.399953         0.136637         0.018094
 C         2.392730         1.281993        -0.111603
 C         3.372099         0.354827         0.535676
 O         4.455883         0.906023         1.316708
 C         3.735935        -0.597382        -0.540385
 C         2.273157        -1.094918        -0.371964
 O         1.629629        -2.338029        -0.907538
 C         2.254275        -0.589553         1.067110
 H        -0.311009         0.980830         0.594103
 H        -0.122143         0.940954        -1.187760
 H        -0.466799        -0.609354        -0.254716
 H         2.558441         1.699105        -1.170713
 H         2.013540         2.098583         0.482252
 H         4.429975         1.844287         1.118657
 H         4.051479        -0.370980        -1.568694
 H         4.450923        -1.389185        -0.147636
 H         0.898941        -1.822014        -1.337190
 H         2.098800        -1.009692         2.041104
