19
Iteration:  1496
 C        -0.157332         0.196828        -0.272655
 C         1.365444         0.247591        -0.040905
 C         2.341843         1.442391         0.086287
 C         3.383948         0.440164         0.611009
 O         4.672370         0.693240         1.156460
 C         3.631639        -0.587598        -0.617146
 C         2.221998        -1.014678        -0.401751
 O         1.873525        -2.303713        -0.902965
 C         2.120288        -0.539473         1.039645
 H        -0.751102         0.909569         0.392060
 H        -0.360610         0.356363        -1.348677
 H        -0.667181        -0.725843        -0.084649
 H         2.627567         2.074827        -0.826118
 H         2.031555         2.103779         0.865633
 H         4.901593         1.288964         1.901105
 H         3.787675        -0.066359        -1.555154
 H         4.308048        -1.402230        -0.336433
 H         0.944774        -2.528050        -0.844476
 H         1.876112        -1.043320         2.038170
