19
Iteration:  3449charge 0 multiplicity 1
 C        -0.055689         0.392168        -0.127464
 C         1.416858         0.180387        -0.040268
 C         2.437965         1.321102        -0.071792
 C         3.395276         0.383406         0.486403
 O         4.416739         0.817836         1.288939
 C         3.693243        -0.588287        -0.647301
 C         2.203879        -1.102894        -0.407857
 O         1.856564        -2.344348        -0.852922
 C         2.221905        -0.616686         1.013393
 H        -0.484431         1.069972         0.650719
 H        -0.122742         1.111799        -0.935154
 H        -0.814996        -0.465195        -0.204561
 H         2.648866         1.769246        -1.067785
 H         2.136474         2.050165         0.574533
 H         4.018716         1.625356         1.724906
 H         3.774295        -0.308894        -1.699175
 H         4.408873        -1.359845        -0.395697
 H         0.897267        -2.327121        -0.973808
 H         1.729783        -0.956310         2.005958
