19
Iteration:  4763charge 0 multiplicity 1
 C        -0.067016        -0.012530        -0.214875
 C         1.357482         0.225428         0.011168
 C         2.284903         1.542519        -0.043890
 C         3.414801         0.454222         0.510568
 O         4.545528         0.657494         1.379277
 C         3.750740        -0.541715        -0.629640
 C         2.233291        -1.014534        -0.411445
 O         1.628796        -2.219073        -0.851474
 C         2.294556        -0.546632         0.969513
 H        -0.703209         0.109771         0.661748
 H        -0.281364         0.644700        -1.070368
 H        -0.130292        -0.940502        -0.729875
 H         2.550305         2.205767        -0.946316
 H         2.077448         2.090725         0.886547
 H         4.631431         1.626780         1.457761
 H         4.003919        -0.285452        -1.721802
 H         4.469826        -1.301607        -0.231620
 H         1.571469        -2.073683        -1.817345
 H         2.106098        -0.949910         1.897704
