19
Iteration:  3781charge 0 multiplicity 1
 C        -0.026101         0.280371        -0.211188
 C         1.460028         0.183603        -0.141518
 C         2.354644         1.402272        -0.061627
 C         3.402777         0.357348         0.591393
 O         4.506042         0.792585         1.321493
 C         3.685374        -0.571298        -0.637541
 C         2.241879        -1.064048        -0.474809
 O         1.699435        -2.363637        -0.725124
 C         2.231954        -0.530021         0.944551
 H        -0.294909         1.171440         0.261139
 H        -0.280462         0.477190        -1.247127
 H        -0.668508        -0.594387         0.026496
 H         2.543034         1.956379        -1.046752
 H         1.858643         2.106378         0.643804
 H         4.337644         1.475150         2.029871
 H         4.121174        -0.222038        -1.575503
 H         4.345124        -1.368597        -0.358158
 H         0.823289        -2.244087        -1.138107
 H         2.041391        -0.902164         1.872765
