19
Iteration:  2620
 C        -0.068187         0.172242        -0.155100
 C         1.472211         0.183594        -0.008891
 C         2.416935         1.310919        -0.071610
 C         3.371083         0.350235         0.590709
 O         4.396905         0.962363         1.310550
 C         3.735918        -0.686956        -0.575836
 C         2.313844        -1.077748        -0.344663
 O         1.623779        -2.199122        -0.989998
 C         2.252182        -0.599749         1.022491
 H        -0.454622         0.722806         0.756001
 H        -0.413166         0.766862        -1.074557
 H        -0.478842        -0.935979        -0.159996
 H         2.779767         1.771264        -0.981428
 H         2.125023         2.179093         0.624584
 H         4.757962         1.607499         0.764820
 H         4.137877        -0.223141        -1.512904
 H         4.472871        -1.499406        -0.209789
 H         1.106612        -1.836963        -1.745017
 H         2.017066        -1.168896         2.048363
