19
Iteration:  3519charge 0 multiplicity 1
 C        -0.068830         0.111510        -0.210601
 C         1.471372         0.141208        -0.031207
 C         2.373047         1.388817        -0.050205
 C         3.452538         0.385974         0.546602
 O         4.540872         0.831938         1.245443
 C         3.664214        -0.720802        -0.609963
 C         2.251330        -1.030077        -0.405338
 O         1.637757        -2.141698        -0.811095
 C         2.206236        -0.506842         1.017414
 H        -0.628332         0.887727         0.185103
 H        -0.234855         0.332134        -1.263950
 H        -0.475229        -0.798703         0.166139
 H         2.664403         1.855807        -1.023702
 H         2.182088         2.154805         0.685425
 H         4.202110         1.322851         2.013108
 H         3.942276        -0.211567        -1.534018
 H         4.423654        -1.467786        -0.308596
 H         1.355604        -1.964167        -1.718980
 H         1.828584        -0.966368         1.891173
