19
Iteration:   821charge 0 multiplicity 1
 C        -0.097914         0.066074        -0.199735
 C         1.377764         0.115345         0.155621
 C         2.193906         1.369565         0.073302
 C         3.479297         0.401400         0.531907
 O         4.577943         0.816683         1.384050
 C         3.669898        -0.468937        -0.814782
 C         2.266293        -0.986994        -0.479852
 O         1.577789        -2.113798        -0.963612
 C         2.357241        -0.586205         1.034105
 H        -0.885687         0.404706         0.530235
 H        -0.240142         0.635582        -1.164648
 H        -0.308877        -0.945265        -0.513178
 H         2.464478         1.580820        -0.950342
 H         1.879471         2.157719         0.812633
 H         5.389564         0.533346         1.021977
 H         3.794491         0.075836        -1.719136
 H         4.412608        -1.262586        -0.611116
 H         2.223775        -2.787841        -0.633410
 H         2.126464        -1.122009         2.016800
