19
Iteration:  1207
 C        -0.044773         0.297504        -0.207289
 C         1.475507         0.088012         0.055705
 C         2.396814         1.341850         0.066587
 C         3.420187         0.374445         0.541255
 O         4.390930         0.953427         1.326830
 C         3.674625        -0.560214        -0.790347
 C         2.257189        -1.048652        -0.471920
 O         1.652463        -2.296357        -0.754859
 C         2.306623        -0.733248         0.986129
 H        -0.556983         0.927525         0.517989
 H        -0.197393         0.808064        -1.109723
 H        -0.516808        -0.731961        -0.272392
 H         2.415587         1.966053        -0.949148
 H         1.910932         1.994048         0.899990
 H         4.882857         1.711112         0.903284
 H         4.042060         0.009913        -1.660654
 H         4.405074        -1.348662        -0.583747
 H         1.265296        -2.162768        -1.649716
 H         2.132597        -1.381794         1.723858
