19
Iteration:   242
 C        -0.061657         0.302140         0.021033
 C         1.379898         0.189216         0.070294
 C         2.338142         1.276263        -0.008414
 C         3.403466         0.353188         0.529564
 O         4.421974         0.881389         1.353166
 C         3.617129        -0.558040        -0.721650
 C         2.185304        -1.046011        -0.440103
 O         1.782188        -2.243649        -1.077983
 C         2.385763        -0.669614         0.958291
 H        -0.547596         0.839894         0.811334
 H        -0.305928         0.975330        -0.769282
 H        -0.462794        -0.709718        -0.188258
 H         2.476069         1.676713        -1.020042
 H         2.119180         2.144049         0.644886
 H         4.877420         1.543289         0.770361
 H         3.903580        -0.071242        -1.619944
 H         4.275515        -1.322540        -0.415046
 H         1.446690        -2.862734        -0.424088
 H         2.286660        -1.156695         2.013289
