19
Iteration:  4004
 C         0.078089         0.292319        -0.226699
 C         1.512952         0.136032        -0.005454
 C         2.345613         1.332343        -0.114471
 C         3.443210         0.419254         0.564580
 O         4.456802         0.936396         1.233413
 C         3.665886        -0.696033        -0.512982
 C         2.256773        -1.144118        -0.343720
 O         1.617299        -2.237465        -0.911331
 C         2.172435        -0.629242         1.097100
 H        -0.427177         0.805958         0.633329
 H        -0.211114         0.845020        -1.154093
 H        -0.478213        -0.582093        -0.280844
 H         2.683479         1.569787        -1.161373
 H         2.099772         2.149654         0.488666
 H         4.338329         1.877384         1.340543
 H         4.106148        -0.198842        -1.418336
 H         4.391645        -1.397450         0.003849
 H         1.141785        -2.056901        -1.739685
 H         1.784749        -1.299892         1.758793
