19
Iteration:   922charge 0 multiplicity 1
 C        -0.046436         0.180931         0.038319
 C         1.457662         0.147094         0.088519
 C         2.359359         1.345319         0.027215
 C         3.438500         0.353936         0.547181
 O         4.455981         1.037852         1.203526
 C         3.659577        -0.635441        -0.630225
 C         2.220340        -1.106607        -0.364094
 O         1.698483        -2.137879        -1.237964
 C         2.174295        -0.663704         1.095228
 H        -0.359698         0.843284         0.896892
 H        -0.367185         0.559996        -0.936408
 H        -0.621748        -0.749206         0.228479
 H         2.441828         1.904473        -0.983802
 H         1.970780         2.160897         0.671149
 H         5.040711         0.351626         1.675539
 H         3.880487        -0.372146        -1.680128
 H         4.480998        -1.340869        -0.390395
 H         2.457741        -2.691070        -1.402143
 H         1.752040        -1.084746         1.954216
