19
Iteration:  2814charge 0 multiplicity 1
 C        -0.132225         0.290335        -0.080950
 C         1.383533         0.181868        -0.073689
 C         2.330558         1.399179        -0.138562
 C         3.421373         0.430298         0.508397
 O         4.434763         0.779543         1.426050
 C         3.692337        -0.579031        -0.671430
 C         2.295924        -1.115864        -0.403837
 O         1.768198        -2.334051        -0.878504
 C         2.219298        -0.506057         1.024925
 H        -0.412669         0.868133         0.827843
 H        -0.416055         0.776612        -1.070198
 H        -0.504850        -0.715901        -0.051997
 H         2.465779         1.796605        -1.214731
 H         2.087634         2.184847         0.554122
 H         5.234453         0.923508         0.942662
 H         4.116611        -0.006757        -1.562521
 H         4.349119        -1.317715        -0.186226
 H         1.510732        -2.407429        -1.835358
 H         2.100941        -1.015653         1.985726
