19
Iteration:  2461charge 0 multiplicity 1
 C        -0.036507         0.075003        -0.111721
 C         1.419987         0.153620        -0.024157
 C         2.435839         1.373119        -0.129044
 C         3.337560         0.413737         0.576964
 O         4.445691         0.962716         1.306160
 C         3.764279        -0.615431        -0.541033
 C         2.256134        -1.087984        -0.421009
 O         1.607274        -2.247061        -0.995162
 C         2.287333        -0.496861         1.046500
 H        -0.567884         0.409911         0.757204
 H        -0.437108         0.987565        -0.725568
 H        -0.442779        -0.862072        -0.468591
 H         2.749900         1.663878        -1.152375
 H         2.270500         2.250158         0.389279
 H         5.006393         0.337819         1.684057
 H         4.248168        -0.180044        -1.500480
 H         4.223665        -1.543020        -0.192668
 H         0.855393        -1.918619        -1.499328
 H         1.981800        -0.945424         2.092290
