19
Iteration:  1106
 C        -0.050585        -0.026165        -0.004952
 C         1.453846         0.221804        -0.057693
 C         2.328212         1.389085        -0.169507
 C         3.437722         0.416291         0.481283
 O         4.391100         0.809715         1.429054
 C         3.736202        -0.632605        -0.640136
 C         2.264618        -0.974715        -0.450999
 O         1.583749        -2.096339        -0.908147
 C         2.305050        -0.478072         0.987864
 H        -0.499915         0.420567         0.887316
 H        -0.555449         0.144122        -0.913358
 H        -0.175419        -1.088574         0.169914
 H         2.664772         1.961268        -1.064765
 H         2.039244         2.110383         0.685867
 H         5.311253         0.693347         1.104051
 H         4.074886        -0.401104        -1.654696
 H         4.334563        -1.528016        -0.347106
 H         1.721485        -2.211948        -1.848463
 H         2.088174        -1.060305         2.019778
