19
Iteration:  3233charge 0 multiplicity 1
 C        -0.053323         0.124308        -0.260844
 C         1.416114         0.171526        -0.063156
 C         2.431374         1.316291         0.011873
 C         3.458418         0.387777         0.490506
 O         4.564254         0.932769         1.229617
 C         3.713087        -0.742791        -0.548949
 C         2.259764        -1.067391        -0.353041
 O         1.605575        -2.188738        -0.888274
 C         2.177289        -0.529701         1.074953
 H        -0.512402         0.266022         0.685031
 H        -0.310567         0.903337        -1.082300
 H        -0.382024        -0.925141        -0.630960
 H         2.897124         1.885465        -0.789207
 H         2.012285         2.056093         0.766779
 H         4.219690         1.696277         1.598971
 H         3.821130        -0.261226        -1.547131
 H         4.448123        -1.454751        -0.149060
 H         0.832803        -1.890225        -1.403682
 H         1.744493        -0.676946         1.991829
