19
Iteration:  4483
 C        -0.033404         0.068845        -0.064942
 C         1.463548         0.225424        -0.094610
 C         2.423876         1.430828        -0.169759
 C         3.448084         0.430274         0.506041
 O         4.432996         0.768421         1.421992
 C         3.655192        -0.619828        -0.627104
 C         2.256096        -1.064180        -0.464755
 O         1.616529        -2.193966        -0.826096
 C         2.327909        -0.509497         0.896435
 H        -0.614520         0.945053         0.380337
 H        -0.376521        -0.129087        -1.114960
 H        -0.292206        -0.830361         0.409430
 H         2.569371         1.929734        -1.087384
 H         2.108869         2.138951         0.652645
 H         3.898435         1.057080         2.208984
 H         3.891306        -0.084492        -1.639703
 H         4.396891        -1.286158        -0.203298
 H         1.450060        -2.208341        -1.779735
 H         1.997248        -0.838555         1.982720
