19
Iteration:  1578
 C        -0.085350         0.323730        -0.123878
 C         1.437493         0.181913        -0.114980
 C         2.406740         1.299674        -0.043688
 C         3.381491         0.278509         0.528488
 O         4.470773         0.903046         1.242257
 C         3.686493        -0.665441        -0.593723
 C         2.270012        -1.038554        -0.399448
 O         1.694850        -2.195696        -0.881911
 C         2.169038        -0.617539         1.014080
 H        -0.384537         1.020038         0.586539
 H        -0.495836         0.746059        -1.008800
 H        -0.396995        -0.688808         0.088289
 H         2.825989         1.814272        -0.925724
 H         2.119592         2.016452         0.820884
 H         4.072294         1.391516         2.045203
 H         4.159730        -0.129948        -1.414015
 H         4.393807        -1.441732        -0.348071
 H         2.281493        -2.619919        -1.521500
 H         1.892048        -1.145455         1.822632
