19
Iteration:  4864charge 0 multiplicity 1
 C        -0.085712         0.143294        -0.151811
 C         1.424541         0.174509        -0.143932
 C         2.367196         1.344731        -0.010632
 C         3.386644         0.345381         0.585447
 O         4.515840         0.827928         1.277778
 C         3.697602        -0.606326        -0.675628
 C         2.284169        -0.970760        -0.358203
 O         1.793249        -2.183767        -0.920005
 C         2.147069        -0.563775         1.028524
 H        -0.506797         1.040603         0.392205
 H        -0.564731         0.181450        -1.147502
 H        -0.427430        -0.728451         0.337363
 H         2.626613         2.109021        -0.863739
 H         2.017570         2.004141         0.777602
 H         4.196154         0.934469         2.281404
 H         4.055989        -0.147197        -1.621226
 H         4.356492        -1.341562        -0.343358
 H         1.172762        -2.124421        -1.659066
 H         1.792827        -1.210911         1.950214
