19
Iteration:  1467
 C        -0.089529         0.406805        -0.113767
 C         1.359727         0.156581        -0.043333
 C         2.292231         1.325374        -0.022502
 C         3.392786         0.458307         0.477648
 O         4.511588         0.794485         1.230936
 C         3.712638        -0.598806        -0.615951
 C         2.263424        -1.120888        -0.393385
 O         1.853958        -2.333054        -0.898913
 C         2.203948        -0.614505         1.014336
 H        -0.355053         1.319396         0.395580
 H        -0.397547         0.826125        -1.111152
 H        -0.786321        -0.440926         0.096843
 H         2.387354         1.936116        -0.955669
 H         2.033146         1.879786         0.921020
 H         4.368498         1.126850         2.087011
 H         3.993505        -0.159469        -1.599812
 H         4.468866        -1.353136        -0.307424
 H         1.051098        -2.192479        -1.470349
 H         2.087923        -1.062118         2.107653
