19
Iteration:  2636
 C        -0.040505         0.232658        -0.104271
 C         1.374940         0.174862         0.007530
 C         2.384372         1.357990        -0.080245
 C         3.487324         0.391409         0.518659
 O         4.482512         0.916135         1.381635
 C         3.693551        -0.679873        -0.597812
 C         2.227836        -1.080782        -0.487797
 O         1.724357        -2.275914        -0.949161
 C         2.170926        -0.588299         1.089088
 H        -0.594579         0.601553         0.722388
 H        -0.204849         0.724087        -1.021908
 H        -0.452163        -0.690586        -0.291683
 H         2.426948         1.602916        -1.168851
 H         2.130960         2.159287         0.553264
 H         4.545144         1.835582         1.050368
 H         4.024831        -0.348656        -1.584328
 H         4.326827        -1.449596        -0.266960
 H         1.425863        -2.047469        -1.888072
 H         1.796286        -0.903331         1.963253
