19
Iteration:  2663charge 0 multiplicity 1
 C        -0.177309         0.310669        -0.131200
 C         1.339085         0.173445        -0.132928
 C         2.374987         1.405005        -0.014883
 C         3.383130         0.383231         0.527583
 O         4.510936         0.748272         1.265823
 C         3.693434        -0.581750        -0.631246
 C         2.317656        -1.094487        -0.403905
 O         1.790837        -2.316755        -0.809122
 C         2.232091        -0.528104         1.000379
 H        -0.621418         0.825809         0.775610
 H        -0.455379         0.847191        -1.125617
 H        -0.676581        -0.756508        -0.245666
 H         2.653872         1.864491        -1.062208
 H         1.985642         2.254320         0.682609
 H         4.103622         1.400668         1.857693
 H         4.029475        -0.220454        -1.653623
 H         4.560081        -1.245717        -0.238382
 H         1.891802        -2.204609        -1.805247
 H         2.060792        -1.067273         2.062949
