19
Iteration:  3994
 C        -0.041705         0.236886        -0.198738
 C         1.432643         0.126400        -0.055678
 C         2.449480         1.351706        -0.088763
 C         3.391882         0.396381         0.555967
 O         4.537446         0.971689         1.218407
 C         3.733771        -0.739223        -0.493701
 C         2.275839        -1.121238        -0.361983
 O         1.606834        -2.180876        -0.893608
 C         2.136381        -0.650701         1.097991
 H        -0.484841         0.855676         0.615863
 H        -0.107542         0.806235        -1.145063
 H        -0.457461        -0.721346        -0.353603
 H         2.637483         1.805974        -1.124032
 H         2.034524         2.144521         0.498309
 H         4.199074         1.843903         1.581487
 H         4.032416        -0.421358        -1.501957
 H         4.396460        -1.600022        -0.203436
 H         1.542895        -2.126566        -1.865734
 H         1.674310        -1.018027         1.964736
