19
Iteration:  3893
 C        -0.013759         0.294208        -0.286968
 C         1.425709         0.263780        -0.016223
 C         2.347763         1.367351        -0.012641
 C         3.448970         0.373663         0.548656
 O         4.491117         0.827575         1.280926
 C         3.692250        -0.649885        -0.678667
 C         2.186357        -1.047254        -0.443322
 O         1.706301        -2.328033        -0.723062
 C         2.225152        -0.592087         0.996725
 H        -0.566737         1.166819         0.103885
 H        -0.173300         0.362699        -1.377172
 H        -0.393652        -0.579093         0.203221
 H         2.561673         2.183290        -0.824689
 H         1.915193         1.914395         0.828784
 H         4.341903         1.654430         1.829690
 H         3.955766        -0.236395        -1.685566
 H         4.434014        -1.407040        -0.368781
 H         1.504568        -2.464261        -1.684863
 H         1.829080        -1.282806         1.883779
