19
Iteration:    83
 C        -0.053124         0.188924        -0.005291
 C         1.394015         0.208711         0.129802
 C         2.281700         1.374818         0.002971
 C         3.384475         0.379735         0.531498
 O         4.528649         0.837786         1.253729
 C         3.639479        -0.563169        -0.725720
 C         2.228654        -1.053897        -0.398698
 O         1.826074        -2.198955        -1.088346
 C         2.224270        -0.643133         1.055802
 H        -0.618944         0.809230         0.701313
 H        -0.309112         0.724217        -0.952053
 H        -0.420153        -0.840617        -0.001993
 H         2.374989         1.816061        -1.047264
 H         2.067345         2.298756         0.587158
 H         5.212909         1.029681         0.559115
 H         3.676962        -0.219164        -1.782308
 H         4.226049        -1.369416        -0.286905
 H         1.281663        -2.737186        -0.489427
 H         1.957647        -1.006929         2.097494
