19
Iteration:  4064charge 0 multiplicity 1
 C        -0.043040         0.245698        -0.234765
 C         1.465523         0.248008        -0.086057
 C         2.394293         1.470692        -0.080904
 C         3.372292         0.375987         0.516279
 O         4.389966         0.681568         1.378649
 C         3.633135        -0.594955        -0.645335
 C         2.180139        -1.028370        -0.429721
 O         1.833165        -2.357163        -0.770927
 C         2.204171        -0.458114         0.964345
 H        -0.500068         1.063646         0.328845
 H        -0.234388         0.325420        -1.314614
 H        -0.390088        -0.803691         0.159892
 H         2.872259         1.946929        -0.981032
 H         1.980373         2.314480         0.642136
 H         5.247582         0.951985         0.869064
 H         4.077014        -0.105100        -1.490760
 H         4.412545        -1.230969        -0.315736
 H         0.897701        -2.451064        -0.502150
 H         1.899689        -0.888702         1.957161
