19
Iteration:  3634
 C        -0.103818         0.387274        -0.128224
 C         1.352767         0.081117        -0.136919
 C         2.427485         1.332136        -0.108376
 C         3.337793         0.361243         0.535048
 O         4.479484         0.795219         1.261553
 C         3.673729        -0.638757        -0.643851
 C         2.318122        -1.048299        -0.426846
 O         1.874042        -2.316960        -0.833124
 C         2.166086        -0.490978         1.066278
 H        -0.331545         0.968602         0.767828
 H        -0.274656         1.069678        -0.884747
 H        -0.789152        -0.417391        -0.077225
 H         2.582167         1.737098        -1.078113
 H         1.952566         2.125226         0.603686
 H         4.245506         1.266558         2.055625
 H         3.885837        -0.177601        -1.635842
 H         4.353718        -1.393408        -0.260099
 H         0.939924        -2.155322        -1.014012
 H         2.037745        -1.063276         1.895335
