19
Iteration:  3069
 C        -0.062404         0.207319        -0.288157
 C         1.505790         0.113548        -0.017534
 C         2.423828         1.287950        -0.005773
 C         3.511956         0.399365         0.610595
 O         4.556442         0.997907         1.198976
 C         3.683212        -0.736479        -0.633717
 C         2.244714        -1.128575        -0.298941
 O         1.623810        -2.158341        -0.944603
 C         2.164626        -0.604070         1.157271
 H        -0.461836         0.747241         0.489044
 H        -0.200891         0.610015        -1.326608
 H        -0.747104        -0.699538        -0.324566
 H         2.446768         1.869473        -1.034052
 H         2.006798         1.900294         0.746621
 H         4.035086         1.811855         1.607503
 H         3.771844        -0.365081        -1.648400
 H         4.274409        -1.546088        -0.268722
 H         0.978210        -1.817861        -1.589071
 H         1.679694        -0.986468         2.114668
