19
Iteration:  2319charge 0 multiplicity 1
 C        -0.138934         0.063065        -0.179274
 C         1.446732         0.186324        -0.059992
 C         2.401437         1.321062        -0.104052
 C         3.464413         0.392664         0.517665
 O         4.554037         0.778735         1.249150
 C         3.695517        -0.608439        -0.500957
 C         2.254888        -1.010244        -0.356921
 O         1.683108        -2.176333        -0.921828
 C         2.149534        -0.493664         1.061537
 H        -0.564224         0.906773         0.377366
 H        -0.636079         0.167758        -1.255265
 H        -0.508527        -0.846741         0.326667
 H         2.803778         1.912295        -0.970076
 H         1.959121         2.102697         0.681288
 H         4.303704         1.568245         1.678055
 H         4.091235        -0.177019        -1.478798
 H         4.456157        -1.323857        -0.139943
 H         1.479419        -1.842270        -1.813676
 H         1.856305        -0.893816         1.939497
