19
Iteration:  2146
 C        -0.115316         0.137981        -0.226789
 C         1.445359         0.185709        -0.100718
 C         2.425247         1.384935        -0.047109
 C         3.425112         0.296995         0.514041
 O         4.460339         0.950890         1.362608
 C         3.827843        -0.742398        -0.574339
 C         2.303065        -1.170194        -0.369213
 O         1.510924        -2.027048        -0.958492
 C         2.262942        -0.610570         0.997236
 H        -0.602519         1.224940         0.167807
 H        -0.394039         0.005708        -1.315254
 H        -0.599825        -0.687966         0.258388
 H         2.770919         1.775958        -0.997312
 H         2.294876         2.076477         0.798163
 H         4.426560         1.963787         1.546188
 H         4.151146        -0.348630        -1.590716
 H         4.530389        -1.329764        -0.033027
 H         1.427063        -2.912852        -0.532298
 H         1.874021        -0.907098         2.027430
