19
Iteration:  3014charge 0 multiplicity 1
 C        -0.143519         0.254202        -0.221306
 C         1.399768         0.228895        -0.064803
 C         2.341023         1.386832        -0.035936
 C         3.463558         0.376757         0.505388
 O         4.566688         0.683240         1.292087
 C         3.651946        -0.577664        -0.692927
 C         2.194611        -1.011067        -0.417933
 O         1.808510        -2.285298        -0.683303
 C         2.161720        -0.500908         0.963529
 H        -0.586591         0.850904         0.539129
 H        -0.441667         0.940528        -1.095183
 H        -0.544016        -0.807517        -0.317900
 H         2.492175         2.023684        -0.996902
 H         1.861776         1.997553         0.651553
 H         4.124866         1.145438         2.094043
 H         3.903794        -0.150661        -1.701762
 H         4.552198        -1.200666        -0.583456
 H         2.013919        -2.459637        -1.599613
 H         2.109706        -1.169713         1.962662
