19
Iteration:  2155charge 0 multiplicity 1
 C        -0.086009         0.066223        -0.298325
 C         1.422777         0.206183        -0.057062
 C         2.492489         1.368819        -0.043790
 C         3.450347         0.370518         0.531363
 O         4.461644         0.893873         1.369416
 C         3.755203        -0.746999        -0.578056
 C         2.345974        -1.089301        -0.364858
 O         1.482866        -2.046188        -0.948367
 C         2.242246        -0.567185         1.039069
 H        -0.509855         1.050919         0.223570
 H        -0.377519        -0.027401        -1.417085
 H        -0.500432        -0.711403         0.363466
 H         2.542205         1.928734        -0.938285
 H         2.230979         2.222433         0.685978
 H         4.400097         1.909304         1.268604
 H         4.036533        -0.373155        -1.575209
 H         4.460199        -1.513312        -0.322082
 H         1.685738        -2.978671        -0.694472
 H         1.754078        -0.937078         2.046280
