19
Iteration:   662charge 0 multiplicity 1
 C        -0.138518         0.127854        -0.202373
 C         1.339119         0.123284         0.040953
 C         2.272732         1.440837         0.175063
 C         3.401057         0.351658         0.526460
 O         4.574162         0.895096         1.137120
 C         3.722568        -0.619852        -0.617929
 C         2.285299        -1.033266        -0.404827
 O         1.701116        -2.092942        -0.989588
 C         2.220706        -0.597690         1.041721
 H        -0.632786         0.647709         0.611846
 H        -0.281819         0.563154        -1.187284
 H        -0.581422        -0.848666        -0.349358
 H         2.333766         2.228403        -0.621031
 H         1.926542         1.908521         1.076189
 H         5.265872         0.265340         1.080093
 H         4.042917        -0.193086        -1.582279
 H         4.295284        -1.426868        -0.274436
 H         2.201203        -2.892353        -0.702526
 H         2.099207        -1.158371         1.990196
