19
Iteration:  1334charge 0 multiplicity 1
 C        -0.044324         0.372466        -0.317138
 C         1.393850         0.060552         0.006764
 C         2.280072         1.314561         0.174227
 C         3.416952         0.321307         0.481944
 O         4.452466         0.942746         1.198494
 C         3.660088        -0.520219        -0.767648
 C         2.295511        -1.068668        -0.460398
 O         1.767225        -2.271862        -0.717104
 C         2.272234        -0.657229         1.029836
 H        -0.301163         1.195415         0.411259
 H        -0.166077         0.568069        -1.470291
 H        -0.787664        -0.410879        -0.036118
 H         2.571567         1.961925        -0.628462
 H         2.030203         1.894625         1.055423
 H         4.657135         0.368828         1.920985
 H         3.897172         0.042230        -1.710634
 H         4.386277        -1.339880        -0.510373
 H         0.923958        -2.255540        -1.250928
 H         2.297051        -1.204147         1.864369
