19
Iteration:  2154charge 0 multiplicity 1
 C        -0.094125         0.074943        -0.293370
 C         1.419268         0.208013        -0.063770
 C         2.493534         1.369710        -0.039694
 C         3.442164         0.358778         0.525308
 O         4.461465         0.902124         1.369773
 C         3.759923        -0.747894        -0.579088
 C         2.349419        -1.098222        -0.368080
 O         1.486081        -2.042992        -0.946709
 C         2.247603        -0.573985         1.037921
 H        -0.485088         1.011797         0.216411
 H        -0.368372        -0.027116        -1.414662
 H        -0.523598        -0.707518         0.378462
 H         2.539289         1.934258        -0.956828
 H         2.239156         2.235462         0.692118
 H         4.419103         1.930601         1.304666
 H         4.038892        -0.380270        -1.558692
 H         4.491984        -1.511046        -0.293096
 H         1.639382        -2.964270        -0.694962
 H         1.745554        -0.931647         2.043950
