19
Iteration:  3675
 C        -0.012368         0.113874        -0.195040
 C         1.450495         0.181867        -0.016980
 C         2.425435         1.452526        -0.108164
 C         3.445362         0.446650         0.543049
 O         4.506284         0.890968         1.379120
 C         3.686613        -0.734503        -0.646295
 C         2.198188        -1.110090        -0.421267
 O         1.591820        -2.211421        -0.955874
 C         2.262037        -0.510699         1.015086
 H        -0.558897         0.566817         0.702522
 H        -0.307809         0.652404        -1.169661
 H        -0.416354        -0.901478        -0.205580
 H         2.860397         1.727242        -1.063089
 H         2.159796         2.303440         0.471734
 H         4.182035         1.664912         1.877983
 H         4.020361        -0.476579        -1.671145
 H         4.306395        -1.490259        -0.164948
 H         0.878519        -2.535298        -0.385866
 H         2.152682        -1.028913         1.904499
