19
Iteration:  2389
 C        -0.042950         0.334941        -0.254289
 C         1.401660         0.127775        -0.000191
 C         2.309494         1.394708         0.024071
 C         3.378609         0.343685         0.516943
 O         4.458312         0.787333         1.334754
 C         3.673623        -0.548035        -0.737429
 C         2.263010        -1.071113        -0.379471
 O         1.774243        -2.288658        -0.741783
 C         2.280176        -0.645408         1.003486
 H        -0.527953         1.287791         0.230543
 H        -0.135820         0.425918        -1.346552
 H        -0.766755        -0.484985        -0.012284
 H         2.417447         1.736182        -1.054920
 H         1.830967         2.360707         0.651997
 H         4.847224         1.591976         1.135481
 H         3.771579        -0.093346        -1.708886
 H         4.507787        -1.225211        -0.572236
 H         1.552357        -2.237394        -1.698139
 H         1.935638        -1.163288         1.944792
