19
Iteration:   849charge 0 multiplicity 1
 C        -0.076945         0.064036        -0.147481
 C         1.478364         0.150933        -0.057915
 C         2.388090         1.489821         0.214665
 C         3.439195         0.381642         0.440368
 O         4.374885         0.824706         1.357154
 C         3.665043        -0.446864        -0.819154
 C         2.323425        -1.063243        -0.483882
 O         1.551644        -2.183183        -0.891767
 C         2.328794        -0.648664         0.964615
 H        -0.475865         0.542100         0.705938
 H        -0.484549         0.383590        -1.107904
 H        -0.490536        -0.993736        -0.134856
 H         2.832123         2.137574        -0.561008
 H         2.175507         2.087824         1.161732
 H         5.290941         0.674297         1.151090
 H         3.518383         0.288918        -1.693521
 H         4.583367        -1.042526        -0.905575
 H         1.913432        -2.802876        -0.254201
 H         2.062926        -1.238353         1.970942
