19
Iteration:  1611charge 0 multiplicity 1
 C        -0.167790         0.405943        -0.095128
 C         1.314193         0.258721        -0.082895
 C         2.287699         1.430859        -0.148415
 C         3.383016         0.420766         0.575988
 O         4.594723         0.661514         1.329309
 C         3.674039        -0.624455        -0.567984
 C         2.233247        -1.212359        -0.402911
 O         1.903362        -2.399549        -0.962608
 C         2.173051        -0.459800         1.029608
 H        -0.488901         1.032338         0.717880
 H        -0.570682         0.657256        -1.054914
 H        -0.486805        -0.637391         0.083325
 H         2.566007         2.002508        -1.069203
 H         2.111757         2.205283         0.725686
 H         4.476504         1.577924         1.558315
 H         4.036344        -0.059796        -1.427721
 H         4.318352        -1.362379        -0.120240
 H         1.661006        -2.130062        -1.854924
 H         1.957341        -0.703663         1.992865
