19
Iteration:  2550charge 0 multiplicity 1
 C        -0.162415         0.207796        -0.232251
 C         1.364483         0.149210        -0.102736
 C         2.383604         1.348333         0.052283
 C         3.396959         0.380349         0.568067
 O         4.522705         0.787482         1.304247
 C         3.631846        -0.504321        -0.724440
 C         2.252603        -1.012224        -0.415658
 O         1.851199        -2.238228        -0.757086
 C         2.210401        -0.535222         1.033088
 H        -0.670167         1.132075         0.115554
 H        -0.420751         0.054403        -1.415196
 H        -0.532543        -0.665352         0.255494
 H         2.617722         2.015721        -0.882551
 H         2.163666         2.037493         0.836998
 H         4.808947        -0.066323         1.575386
 H         3.698310         0.097075        -1.723465
 H         4.307993        -1.338763        -0.778838
 H         1.596458        -2.246411        -1.692993
 H         1.837272        -0.784690         1.944225
