19
Iteration:   573charge 0 multiplicity 1
 C        -0.152304         0.074351        -0.002250
 C         1.370044         0.196170        -0.058266
 C         2.295569         1.482883        -0.020258
 C         3.461566         0.477644         0.420209
 O         4.504665         0.718418         1.345474
 C         3.722884        -0.548616        -0.684081
 C         2.271182        -1.002239        -0.553098
 O         1.656773        -2.235663        -0.901618
 C         2.313548        -0.425839         0.973386
 H        -0.419672         0.703502         0.854793
 H        -0.629073         0.302825        -0.931025
 H        -0.557043        -0.864076         0.170963
 H         2.469543         2.139857        -0.911218
 H         2.008072         2.164048         0.682996
 H         4.546811        -0.081524         1.839061
 H         4.323655        -0.511990        -1.615428
 H         4.256246        -1.185421        -0.074774
 H         2.379778        -2.921851        -0.859705
 H         1.958239        -1.081268         1.942633
