19
Iteration:  1575
 C        -0.075314         0.312408        -0.127337
 C         1.435462         0.188545        -0.112166
 C         2.398551         1.289316        -0.038370
 C         3.385252         0.247945         0.517330
 O         4.471183         0.917103         1.250571
 C         3.719666        -0.658902        -0.595767
 C         2.285985        -1.028643        -0.400899
 O         1.666894        -2.170486        -0.874902
 C         2.172541        -0.626146         1.006925
 H        -0.500848         1.030586         0.676497
 H        -0.462420         0.680782        -1.115728
 H        -0.524244        -0.662007         0.046676
 H         2.846685         1.847009        -0.936236
 H         2.015527         1.982176         0.710171
 H         4.086226         1.333279         1.995937
 H         4.152362        -0.098497        -1.422784
 H         4.429828        -1.454464        -0.341397
 H         2.226728        -2.678917        -1.460164
 H         1.965006        -1.190702         1.953427
