19
Iteration:  4890charge 0 multiplicity 1
 C        -0.082744        -0.090769        -0.265155
 C         1.397333         0.261266        -0.008286
 C         2.405401         1.492379         0.019811
 C         3.414403         0.488364         0.580893
 O         4.560339         0.682399         1.373120
 C         3.732432        -0.522643        -0.678802
 C         2.251967        -0.965541        -0.443602
 O         1.568214        -2.258232        -0.884910
 C         2.288218        -0.521536         0.971560
 H        -0.784053         0.601955         0.163630
 H        -0.344835        -0.066605        -1.309217
 H        -0.315875        -1.115551         0.195640
 H         2.665570         1.936401        -0.910646
 H         2.159386         2.352991         0.665806
 H         4.333665         1.476722         2.041178
 H         4.130657        -0.066183        -1.694138
 H         4.488807        -1.257422        -0.158694
 H         1.088110        -2.233421        -1.723219
 H         1.953299        -0.690249         1.923056
