19
Iteration:  1138
 C        -0.174809         0.059145        -0.142169
 C         1.379609         0.280387        -0.049626
 C         2.380449         1.457160         0.005213
 C         3.386210         0.409641         0.538440
 O         4.578385         0.730389         1.302950
 C         3.713959        -0.491562        -0.622773
 C         2.239499        -1.018754        -0.450724
 O         1.764366        -2.338188        -0.852943
 C         2.150640        -0.482714         0.989120
 H        -0.764681         0.703952         0.511134
 H        -0.647937         0.179785        -1.080845
 H        -0.284298        -0.948392         0.179990
 H         2.902734         2.189848        -0.807499
 H         2.111081         2.102581         0.941892
 H         5.194530         1.119675         0.701891
 H         3.901766        -0.069459        -1.618591
 H         4.379289        -1.353634        -0.378491
 H         1.327467        -2.333051        -1.751770
 H         1.804375        -1.000634         2.016991
