19
Iteration:  3334
 C        -0.064315         0.304628        -0.182926
 C         1.402164         0.123101        -0.043428
 C         2.386854         1.416822         0.026260
 C         3.441271         0.374143         0.507799
 O         4.458606         0.793721         1.235582
 C         3.732873        -0.563931        -0.634327
 C         2.285988        -1.019416        -0.457779
 O         1.645612        -2.294455        -0.738082
 C         2.222174        -0.639972         0.942962
 H        -0.342991         1.386680        -0.130616
 H        -0.207461         0.131034        -1.318151
 H        -0.624593        -0.348083         0.468317
 H         2.399312         1.991173        -0.801892
 H         2.002838         2.093624         0.783003
 H         4.205048         1.557061         1.865227
 H         4.007799        -0.152698        -1.619184
 H         4.438121        -1.330188        -0.259882
 H         1.766967        -2.540651        -1.663537
 H         2.115972        -1.299927         1.935441
