19
Iteration:  2328charge 0 multiplicity 1
 C        -0.082170         0.096735        -0.171841
 C         1.378997         0.194164        -0.149071
 C         2.428124         1.383837        -0.020938
 C         3.410878         0.405915         0.559855
 O         4.548271         0.776537         1.260872
 C         3.701731        -0.593173        -0.570352
 C         2.236569        -1.062161        -0.341414
 O         1.676075        -2.143801        -0.860173
 C         2.171829        -0.568929         1.031486
 H        -0.501826         0.994327         0.212442
 H        -0.477639         0.038043        -1.287247
 H        -0.343378        -0.864343         0.360347
 H         2.628409         1.778465        -1.030134
 H         2.035153         2.156317         0.610769
 H         4.391566         1.673245         1.459121
 H         4.031118        -0.118973        -1.530813
 H         4.432911        -1.391191        -0.175886
 H         1.657734        -2.137860        -1.825036
 H         1.919235        -1.102421         1.866788
