19
Iteration:  4562
 C        -0.099990         0.380080        -0.318607
 C         1.343558         0.096505         0.030573
 C         2.379507         1.232019         0.055174
 C         3.422552         0.343314         0.531697
 O         4.483127         0.906128         1.120799
 C         3.699110        -0.554806        -0.629581
 C         2.280660        -1.166652        -0.228254
 O         1.751377        -2.217371        -0.879662
 C         2.197117        -0.659964         1.084627
 H        -0.666164         0.763175         0.554381
 H        -0.018607         1.162132        -1.058627
 H        -0.436668        -0.612706        -0.688650
 H         2.468824         1.943024        -0.745328
 H         2.180227         1.934895         0.916097
 H         4.239816         1.427726         1.989973
 H         3.828855        -0.095396        -1.727430
 H         4.513850        -1.355006        -0.543298
 H         1.688751        -1.967997        -1.806837
 H         2.092540        -0.848377         2.063778
