19
Iteration:  4572
 C        -0.102627         0.294866        -0.349828
 C         1.401150         0.150154         0.038752
 C         2.363014         1.324244         0.072144
 C         3.441824         0.300253         0.536544
 O         4.551588         0.948151         1.157884
 C         3.686290        -0.604422        -0.657567
 C         2.285322        -1.108587        -0.340118
 O         1.668486        -2.216010        -0.864069
 C         2.247665        -0.691947         1.161239
 H        -0.789604         0.503040         0.516744
 H        -0.269237         1.079563        -1.107700
 H        -0.601374        -0.583024        -0.777066
 H         2.568628         1.680492        -0.916827
 H         1.976035         2.065294         0.857484
 H         4.109983         1.360218         1.948813
 H         3.973004        -0.015393        -1.595599
 H         4.511958        -1.267046        -0.320090
 H         1.554751        -2.052713        -1.816170
 H         1.893235        -1.036908         2.096452
