19
Iteration:   443charge 0 multiplicity 1
 C        -0.128369         0.100595        -0.130528
 C         1.404021         0.164655         0.007680
 C         2.295712         1.393588        -0.079767
 C         3.465769         0.371496         0.484764
 O         4.507181         0.722384         1.312142
 C         3.616595        -0.553220        -0.690017
 C         2.266354        -1.063921        -0.319593
 O         1.744128        -2.125138        -0.994814
 C         2.236251        -0.404342         1.103684
 H        -0.577069         0.464526         0.840070
 H        -0.561906         0.838670        -0.822485
 H        -0.489123        -0.887892        -0.284777
 H         2.390989         1.862112        -1.100606
 H         2.059573         2.041284         0.756310
 H         5.278748         0.289561         0.975190
 H         3.741351        -0.015650        -1.676040
 H         4.526313        -1.263420        -0.663277
 H         2.210024        -2.911612        -0.719062
 H         1.834384        -0.645393         2.219659
