19
Iteration:  2009
 C         0.001872         0.207850        -0.343957
 C         1.462642         0.166474        -0.034130
 C         2.370285         1.387587        -0.028381
 C         3.482779         0.382150         0.599249
 O         4.542343         0.943797         1.267751
 C         3.691244        -0.716142        -0.561937
 C         2.193489        -1.121455        -0.328792
 O         1.584773        -2.174327        -0.924413
 C         2.270587        -0.641982         1.088572
 H        -0.588699         0.634202         0.457864
 H        -0.025955         0.796894        -1.343124
 H        -0.576651        -0.806562        -0.668825
 H         2.649389         1.796487        -1.015202
 H         1.919332         2.172444         0.624025
 H         4.129291         1.617059         1.780746
 H         3.978439        -0.386240        -1.545957
 H         4.379657        -1.546496        -0.249178
 H         0.687633        -1.915377        -1.151911
 H         2.059987        -1.220477         2.052088
