19
Iteration:  4815charge 0 multiplicity 1
 C        -0.082140         0.492229        -0.089496
 C         1.383792         0.065436         0.034158
 C         2.309480         1.292904         0.016807
 C         3.418676         0.360576         0.547221
 O         4.406541         0.916988         1.336763
 C         3.703784        -0.585592        -0.665481
 C         2.292047        -1.083310        -0.464237
 O         1.858196        -2.354559        -0.961523
 C         2.226708        -0.699184         0.982902
 H        -0.356825         0.954476         0.873209
 H        -0.302104         1.170696        -0.943232
 H        -0.754069        -0.439198        -0.263201
 H         2.533765         1.658720        -0.966733
 H         2.009314         2.214195         0.625584
 H         4.045302         1.741783         1.552402
 H         3.955729        -0.150331        -1.603105
 H         4.417672        -1.433734        -0.469652
 H         1.618938        -2.263827        -1.912617
 H         1.888309        -1.152352         1.884054
