19
Iteration:  2832charge 0 multiplicity 1
 C        -0.119242         0.262654        -0.144556
 C         1.398255         0.160682        -0.095785
 C         2.355303         1.366159        -0.092260
 C         3.424294         0.415661         0.488606
 O         4.366485         0.724532         1.457844
 C         3.744515        -0.545996        -0.773244
 C         2.300436        -1.089611        -0.416112
 O         1.752564        -2.312487        -0.709924
 C         2.277381        -0.519090         0.942954
 H        -0.501258         0.919239         0.757094
 H        -0.446748         0.974114        -0.922886
 H        -0.793505        -0.613372        -0.184242
 H         2.615238         1.998011        -0.900190
 H         1.948762         2.132365         0.690842
 H         5.118583         1.094924         1.042751
 H         3.742031        -0.026780        -1.768581
 H         4.616572        -1.186744        -0.833227
 H         1.621815        -2.179519        -1.695512
 H         1.914738        -0.896109         2.064272
