19
Iteration:  1082
 C        -0.084404         0.197575         0.008291
 C         1.466353         0.167120         0.100769
 C         2.387514         1.346921        -0.128929
 C         3.433503         0.371478         0.481900
 O         4.284751         0.952931         1.378760
 C         3.751384        -0.556538        -0.659235
 C         2.345627        -1.168253        -0.402034
 O         1.584711        -2.188619        -1.000362
 C         2.340594        -0.642371         0.997976
 H        -0.563243         0.723069         0.816188
 H        -0.372238         0.521285        -0.978433
 H        -0.502563        -0.753917         0.081372
 H         2.754639         1.669754        -1.168720
 H         2.180520         2.275664         0.464718
 H         5.275845         0.834266         1.209535
 H         3.946480        -0.206917        -1.673024
 H         4.431440        -1.408866        -0.514482
 H         1.470129        -2.034273        -1.948457
 H         2.083239        -1.009304         1.998588
