19
Iteration:  4936charge 0 multiplicity 1
 C        -0.092642         0.253722        -0.264859
 C         1.458714         0.148812         0.034998
 C         2.355358         1.395404         0.058191
 C         3.373355         0.333909         0.565183
 O         4.444479         0.868245         1.356884
 C         3.681456        -0.522230        -0.699927
 C         2.230713        -1.096461        -0.379780
 O         1.741492        -2.304962        -0.897790
 C         2.246214        -0.627375         1.041653
 H        -0.687605         0.980581         0.324147
 H        -0.205724         0.643843        -1.293235
 H        -0.569009        -0.723592        -0.218366
 H         2.669949         1.975486        -0.748633
 H         1.935743         2.076978         0.847014
 H         4.936207         1.511449         0.702983
 H         4.036952        -0.013666        -1.717963
 H         4.482109        -1.358776        -0.503459
 H         1.602464        -2.177578        -1.859644
 H         2.095423        -1.136917         1.989265
