19
Iteration:  1299charge 0 multiplicity 1
 C        -0.109047         0.214714        -0.138388
 C         1.397120         0.169884         0.003158
 C         2.358785         1.370898         0.017327
 C         3.448284         0.386548         0.503383
 O         4.501924         0.996489         1.294887
 C         3.732270        -0.612015        -0.705070
 C         2.311038        -1.140510        -0.420529
 O         1.593341        -2.299110        -0.884895
 C         2.276585        -0.619035         0.987475
 H        -0.389231         1.135110         0.440437
 H        -0.522851         0.573563        -1.175143
 H        -0.603782        -0.645880         0.260901
 H         2.548057         1.941599        -0.964309
 H         2.064149         2.115562         0.747789
 H         4.337428         0.780565         2.198922
 H         4.095028        -0.090031        -1.617244
 H         4.523786        -1.366723        -0.479410
 H         1.400413        -2.311391        -1.856287
 H         2.354490        -1.109241         2.034007
