19
Iteration:  2011charge 0 multiplicity 1
 C        -0.003694         0.192333        -0.360806
 C         1.469616         0.185475        -0.043064
 C         2.366114         1.365342        -0.024601
 C         3.490355         0.358846         0.581695
 O         4.554271         0.945221         1.281298
 C         3.696108        -0.696220        -0.563352
 C         2.178961        -1.117995        -0.329069
 O         1.582943        -2.174586        -0.903934
 C         2.275045        -0.639559         1.089073
 H        -0.658046         0.592607         0.474304
 H        -0.067495         0.820633        -1.321781
 H        -0.594530        -0.752511        -0.655581
 H         2.648225         1.809562        -0.917971
 H         1.937800         2.169445         0.630699
 H         4.096928         1.677537         1.803647
 H         3.946807        -0.429633        -1.573550
 H         4.413542        -1.522145        -0.311382
 H         0.709041        -1.887781        -1.174091
 H         2.024526        -1.160516         1.931683
