19
Iteration:  4817charge 0 multiplicity 1
 C        -0.066456         0.494846        -0.097369
 C         1.365943         0.061422         0.044557
 C         2.300548         1.296886         0.022169
 C         3.425059         0.379012         0.545532
 O         4.410202         0.911087         1.335400
 C         3.729191        -0.581684        -0.674078
 C         2.281335        -1.085282        -0.465469
 O         1.855260        -2.374964        -0.975463
 C         2.216589        -0.697919         1.001593
 H        -0.384087         0.967347         0.854519
 H        -0.307355         1.191040        -0.927703
 H        -0.705963        -0.396892        -0.177232
 H         2.530210         1.667530        -1.003621
 H         2.012740         2.233966         0.578289
 H         4.010807         1.796063         1.618439
 H         3.940514        -0.214664        -1.598681
 H         4.414245        -1.402563        -0.446440
 H         1.609094        -2.236622        -1.903409
 H         1.925941        -1.175848         1.845973
