19
Iteration:  3075charge 0 multiplicity 1
 C        -0.035298         0.180441        -0.284040
 C         1.433655         0.090780         0.029888
 C         2.481811         1.332051        -0.036315
 C         3.479295         0.351580         0.551942
 O         4.526152         1.028019         1.230878
 C         3.710107        -0.750016        -0.604705
 C         2.219226        -1.122741        -0.295199
 O         1.599142        -2.147886        -0.955054
 C         2.222930        -0.642064         1.125208
 H        -0.567122         0.965373         0.431599
 H        -0.170217         0.634421        -1.263167
 H        -0.608573        -0.741446        -0.198239
 H         2.613685         1.801951        -0.979067
 H         1.906993         2.092408         0.650458
 H         4.076217         1.780547         1.644288
 H         3.825176        -0.302225        -1.627490
 H         4.510762        -1.521795        -0.367257
 H         0.918562        -1.788485        -1.522268
 H         1.673185        -0.860840         2.097550
