19
Iteration:  1916charge 0 multiplicity 1
 C        -0.095281         0.282754        -0.147053
 C         1.438503         0.159188        -0.189265
 C         2.371634         1.389563        -0.009795
 C         3.434466         0.439477         0.443956
 O         4.443935         0.663983         1.424624
 C         3.721372        -0.603644        -0.720563
 C         2.313204        -1.113653        -0.381533
 O         1.752274        -2.240639        -0.835362
 C         2.239616        -0.475768         0.936001
 H        -0.427475         1.343927         0.122380
 H        -0.607998         0.019957        -1.029327
 H        -0.684043        -0.237010         0.600624
 H         2.550862         1.846763        -1.111378
 H         1.862165         2.095741         0.672595
 H         4.062525         1.373557         2.049031
 H         3.951483        -0.214685        -1.772423
 H         4.518351        -1.250638        -0.299357
 H         0.831947        -2.241983        -0.465270
 H         2.046323        -1.026017         1.738011
