19
Iteration:    55
 C        -0.114452         0.187222        -0.057451
 C         1.409366         0.115374        -0.027554
 C         2.303337         1.321042         0.008006
 C         3.414137         0.415436         0.476247
 O         4.530796         0.779330         1.311108
 C         3.649509        -0.460067        -0.772278
 C         2.287558        -1.081009        -0.361394
 O         1.685307        -2.256184        -0.949753
 C         2.352791        -0.557115         1.061917
 H        -0.501623         0.498478         0.931110
 H        -0.488738         0.857036        -0.865086
 H        -0.515851        -0.827753        -0.261189
 H         2.456790         1.879868        -0.890833
 H         1.912479         1.873486         0.916496
 H         4.873419         1.668376         1.120957
 H         3.815888        -0.182762        -1.848226
 H         4.516314        -1.106174        -0.454504
 H         0.824665        -1.939944        -1.243415
 H         2.340068        -0.962312         2.001475
