19
Iteration:  4678
 C        -0.192210         0.418680        -0.154032
 C         1.351647         0.133583        -0.049667
 C         2.311790         1.248895         0.057929
 C         3.420081         0.356817         0.456211
 O         4.460529         0.918095         1.234281
 C         3.813056        -0.630945        -0.587259
 C         2.304706        -1.048655        -0.418527
 O         1.828648        -2.266881        -0.889350
 C         2.205928        -0.671470         0.989319
 H        -0.323181         1.421493         0.367693
 H        -0.836601         0.538234        -1.066309
 H        -0.672633        -0.209561         0.535216
 H         2.253896         1.843127        -0.884198
 H         2.302785         1.931700         0.844887
 H         4.305549         0.904953         2.262357
 H         4.016377        -0.300142        -1.655581
 H         4.510199        -1.369544        -0.278005
 H         1.632563        -2.091544        -1.820520
 H         1.924176        -1.346795         1.761377
