19
Iteration:  1220charge 0 multiplicity 1
 C        -0.005206         0.162215        -0.129856
 C         1.399341         0.192007        -0.083757
 C         2.302366         1.350721         0.046145
 C         3.430491         0.369837         0.512867
 O         4.466085         0.859838         1.331758
 C         3.694923        -0.604164        -0.694923
 C         2.312556        -1.051940        -0.450798
 O         1.666923        -2.209724        -0.794332
 C         2.242240        -0.583971         0.979344
 H        -0.429176         0.609572         0.790398
 H        -0.339155         0.657592        -1.069264
 H        -0.461630        -0.850910        -0.149510
 H         2.611966         1.936605        -0.865306
 H         2.087793         2.048101         0.873974
 H         4.652820         1.674404         0.875164
 H         3.856791        -0.210640        -1.734735
 H         4.462235        -1.351883        -0.433837
 H         1.330055        -2.241676        -1.708079
 H         1.893367        -1.263042         1.802350
