19
Iteration:   254
 C        -0.107144         0.298863        -0.005867
 C         1.406169         0.088869         0.153734
 C         2.347231         1.350223        -0.120904
 C         3.433285         0.350778         0.453431
 O         4.354999         0.801492         1.354162
 C         3.760615        -0.460139        -0.727973
 C         2.209456        -1.011470        -0.506644
 O         1.717292        -2.185000        -0.997414
 C         2.355503        -0.695766         1.047077
 H        -0.471118         0.638195         0.932610
 H        -0.317368         0.767524        -0.906282
 H        -0.665673        -0.657598        -0.086293
 H         2.439388         1.674714        -1.146127
 H         2.200205         2.109943         0.620180
 H         4.982243         1.462981         0.961152
 H         3.987446         0.044418        -1.586697
 H         4.356575        -1.320608        -0.682896
 H         1.641476        -2.863013        -0.257570
 H         2.137209        -1.347303         2.044606
