19
Iteration:  4771
 C        -0.058068         0.052932        -0.169477
 C         1.370111         0.259165         0.009496
 C         2.313498         1.490138        -0.013099
 C         3.412374         0.455954         0.558327
 O         4.556339         0.727585         1.399047
 C         3.704613        -0.591305        -0.663015
 C         2.310399        -1.068339        -0.484042
 O         1.647109        -2.259490        -0.853172
 C         2.236468        -0.560763         0.885020
 H        -0.783555         0.158732         0.641221
 H        -0.380187         0.880515        -0.833908
 H        -0.378040        -0.949091        -0.671494
 H         2.384079         2.178488        -0.847691
 H         2.078502         2.241703         0.850808
 H         4.661575         1.651918         1.452558
 H         4.000948        -0.236130        -1.559166
 H         4.515091        -1.225151        -0.229989
 H         1.600184        -2.344803        -1.832661
 H         1.888835        -0.878688         1.942437
