19
Iteration:  1275charge 0 multiplicity 1
 C        -0.070207         0.059939        -0.014159
 C         1.401751         0.225512        -0.036969
 C         2.350918         1.349608        -0.194983
 C         3.415756         0.360100         0.510162
 O         4.525718         0.768863         1.229188
 C         3.634904        -0.607025        -0.587997
 C         2.251899        -0.985357        -0.357615
 O         1.755442        -2.110155        -0.928176
 C         2.215734        -0.511496         1.084933
 H        -0.637703         0.685740         0.701044
 H        -0.551462         0.330332        -1.004359
 H        -0.164431        -1.010069         0.201222
 H         2.707035         1.739628        -1.282937
 H         2.085127         2.310003         0.352354
 H         4.212087         0.885702         2.170445
 H         4.068281        -0.153881        -1.491675
 H         4.246025        -1.496104        -0.383609
 H         1.788531        -2.173733        -1.873680
 H         1.656610        -0.920081         2.071657
