19
Iteration:  4553
 C        -0.034309         0.399474        -0.265708
 C         1.384462         0.107105         0.056830
 C         2.270345         1.277226         0.043038
 C         3.383175         0.382572         0.519935
 O         4.507020         0.864179         1.150612
 C         3.667376        -0.610922        -0.616866
 C         2.310659        -1.146032        -0.313103
 O         1.796647        -2.308211        -0.905605
 C         2.183271        -0.564369         1.107865
 H        -0.566262         0.910965         0.511811
 H        -0.055872         1.075107        -1.098116
 H        -0.752676        -0.398447        -0.713928
 H         2.579855         1.962914        -0.780792
 H         2.110900         1.799532         0.928853
 H         4.242636         1.549375         1.892466
 H         3.569144        -0.058247        -1.644879
 H         4.471131        -1.425071        -0.465572
 H         1.753244        -2.001065        -1.819708
 H         2.127070        -1.035824         2.006698
