19
Iteration:  4674
 C        -0.162318         0.423607        -0.131807
 C         1.319156         0.147485        -0.017804
 C         2.313479         1.263030         0.011524
 C         3.410015         0.345606         0.458560
 O         4.479114         0.905194         1.267895
 C         3.779301        -0.591037        -0.591580
 C         2.320497        -1.079247        -0.444046
 O         1.833788        -2.271777        -0.890910
 C         2.195453        -0.649192         0.976341
 H        -0.336829         1.367637         0.329762
 H        -0.833170         0.455523        -0.984781
 H        -0.802612        -0.290632         0.504696
 H         2.516379         1.815658        -0.961532
 H         2.213033         2.061914         0.792723
 H         4.319391         0.903246         2.208995
 H         3.957803        -0.330066        -1.741400
 H         4.552068        -1.385659        -0.189440
 H         1.663125        -2.173187        -1.851411
 H         1.957006        -1.455700         1.841196
