19
Iteration:  4414charge 0 multiplicity 1
 C        -0.090705         0.349221        -0.283418
 C         1.353545         0.192618         0.071346
 C         2.349138         1.357751         0.076073
 C         3.438109         0.340442         0.549868
 O         4.520883         1.011194         1.219178
 C         3.708599        -0.628204        -0.547005
 C         2.265609        -1.131499        -0.413828
 O         1.730748        -2.378250        -0.899968
 C         2.177629        -0.582114         1.002414
 H        -0.713718         0.880192         0.433512
 H        -0.136525         0.734398        -1.326502
 H        -0.365861        -0.764405        -0.405406
 H         2.537441         1.941716        -0.865501
 H         2.030215         2.038436         0.903493
 H         5.286905         0.521208         1.063128
 H         3.970621        -0.212530        -1.523161
 H         4.408411        -1.394739        -0.092508
 H         0.985270        -2.316209        -1.550326
 H         1.862152        -0.904189         1.914307
