19
Iteration:  4976
 C        -0.115440         0.404246        -0.047710
 C         1.282999         0.124352        -0.091420
 C         2.287939         1.342504        -0.039323
 C         3.384802         0.357479         0.552614
 O         4.394524         0.920128         1.285638
 C         3.816086        -0.643769        -0.597340
 C         2.294800        -1.069675        -0.417555
 O         1.926917        -2.298382        -0.908916
 C         2.150833        -0.650083         0.987720
 H        -0.326085         0.971371         0.844204
 H        -0.135928         1.088677        -0.888708
 H        -0.867712        -0.470664        -0.239711
 H         2.468448         2.123442        -0.922636
 H         1.795291         1.958886         0.750997
 H         5.116423         0.343644         1.217823
 H         4.160033        -0.106350        -1.458863
 H         4.562302        -1.435774        -0.528271
 H         1.289835        -2.150268        -1.621677
 H         1.884653        -1.226192         1.777453
