19
Iteration:  1163charge 0 multiplicity 1
 C        -0.038048         0.297330        -0.268805
 C         1.396822         0.096853         0.047944
 C         2.213878         1.373865         0.062532
 C         3.360739         0.431178         0.487404
 O         4.490321         0.764763         1.287837
 C         3.624088        -0.504776        -0.753876
 C         2.276865        -1.072700        -0.359943
 O         1.834964        -2.282401        -0.811184
 C         2.297826        -0.648488         1.085287
 H        -0.278736         1.199249         0.303356
 H        -0.196461         0.708530        -1.240207
 H        -0.817065        -0.511335        -0.103456
 H         2.504888         1.910757        -0.850324
 H         2.000495         2.074013         0.928879
 H         5.078423         1.347995         0.750708
 H         3.546988        -0.149883        -1.789883
 H         4.363626        -1.273102        -0.525529
 H         1.206509        -2.231049        -1.566494
 H         2.118274        -1.055319         1.990752
