19
Iteration:  2740charge 0 multiplicity 1
 C         0.035228         0.129746        -0.290563
 C         1.429967         0.129809         0.061334
 C         2.359343         1.355031        -0.034891
 C         3.398075         0.392546         0.543944
 O         4.448861         0.950657         1.272253
 C         3.707795        -0.589587        -0.644314
 C         2.272762        -1.029833        -0.368134
 O         1.583568        -2.196983        -0.859394
 C         2.265086        -0.597480         1.054540
 H        -0.326901         1.000226         0.239038
 H        -0.210904         0.254761        -1.351474
 H        -0.309016        -0.813618         0.188530
 H         2.576901         1.977943        -0.945960
 H         1.964944         2.156101         0.620657
 H         4.880785         0.114291         1.710752
 H         3.950728        -0.290797        -1.683630
 H         4.489063        -1.403790        -0.409930
 H         1.047511        -1.971529        -1.650298
 H         2.107640        -1.129357         1.938032
