19
Iteration:  2941charge 0 multiplicity 1
 C        -0.187630         0.193158        -0.143328
 C         1.393215         0.125004        -0.032857
 C         2.422925         1.327116        -0.085024
 C         3.422611         0.349463         0.568870
 O         4.553458         0.978258         1.229292
 C         3.709269        -0.713532        -0.535622
 C         2.302298        -1.076932        -0.407079
 O         1.688616        -2.154959        -0.960787
 C         2.222345        -0.534743         1.048622
 H        -0.604098         1.067327         0.372678
 H        -0.532881         0.341154        -1.151446
 H        -0.503549        -0.772712         0.220515
 H         2.736902         1.798476        -0.989146
 H         2.160589         2.147588         0.743249
 H         4.212366         0.986206         2.091723
 H         4.126118        -0.538545        -1.546672
 H         4.302166        -1.553465        -0.178775
 H         1.094543        -2.026793        -1.720770
 H         2.034106        -1.221925         2.013443
