19
Iteration:  1818
 C        -0.037043         0.272285        -0.203291
 C         1.393677         0.208474        -0.041155
 C         2.376515         1.395239        -0.036924
 C         3.422836         0.393312         0.549867
 O         4.528692         0.869520         1.226197
 C         3.707168        -0.683691        -0.572616
 C         2.253549        -1.090967        -0.331613
 O         1.729196        -2.257897        -0.912042
 C         2.163279        -0.566822         0.991435
 H        -0.552502         0.593092         0.789605
 H        -0.413858         0.969311        -0.947837
 H        -0.587925        -0.653447        -0.574661
 H         2.717726         1.615700        -1.023901
 H         2.217303         2.151387         0.660324
 H         4.296330         0.783669         2.218409
 H         3.913932        -0.274588        -1.569049
 H         4.295969        -1.521238        -0.221299
 H         0.915454        -2.009527        -1.391563
 H         2.033016        -1.144930         1.879846
