19
Iteration:   206
 C        -0.116085         0.217296        -0.019880
 C         1.403929         0.189407        -0.078360
 C         2.250386         1.345487         0.131910
 C         3.448194         0.357640         0.510656
 O         4.565080         0.796819         1.188325
 C         3.674649        -0.548051        -0.599627
 C         2.259551        -1.087450        -0.398688
 O         1.784918        -2.234909        -1.064390
 C         2.234466        -0.580338         1.002021
 H        -0.477739         0.588092         0.955548
 H        -0.494095         0.644082        -0.991057
 H        -0.574006        -0.794293        -0.060196
 H         2.451172         2.102425        -0.687469
 H         1.919050         1.865101         1.152601
 H         4.768163         1.690286         0.841074
 H         4.028991        -0.087581        -1.610792
 H         4.459086        -1.266133        -0.235727
 H         0.894051        -2.376932        -0.758089
 H         1.886887        -0.663285         1.941599
