19
Iteration:  1670
 C        -0.059523         0.199616        -0.318930
 C         1.407929         0.115555        -0.001078
 C         2.478663         1.423052         0.055291
 C         3.470022         0.389719         0.484739
 O         4.546999         0.970149         1.372998
 C         3.705339        -0.629613        -0.706471
 C         2.267025        -1.127582        -0.382461
 O         1.526233        -2.277400        -0.920682
 C         2.265735        -0.601112         1.018161
 H        -0.709126         0.824261         0.227923
 H        -0.273455         0.513056        -1.338812
 H        -0.501126        -0.789374        -0.173942
 H         2.796848         2.070245        -0.760418
 H         2.232018         2.093236         0.924215
 H         4.122308         1.071472         2.231393
 H         4.023235        -0.259233        -1.665613
 H         4.541856        -1.308671        -0.476009
 H         0.548579        -2.086055        -0.893694
 H         1.944322        -1.022202         2.011846
