19
Iteration:  1339
 C        -0.068645         0.378563        -0.335695
 C         1.382106         0.085629         0.003645
 C         2.281818         1.315021         0.149877
 C         3.395735         0.288692         0.505954
 O         4.471469         0.913283         1.190853
 C         3.667079        -0.498844        -0.745802
 C         2.284805        -1.051003        -0.435983
 O         1.791589        -2.291110        -0.725438
 C         2.269641        -0.627628         1.052918
 H        -0.525902         1.084986         0.346089
 H        -0.202044         0.534167        -1.347022
 H        -0.741038        -0.479816        -0.062859
 H         2.526052         2.028005        -0.711649
 H         2.064894         2.069833         0.956017
 H         4.833392         0.271649         1.863418
 H         3.829759         0.001962        -1.700645
 H         4.451107        -1.268765        -0.741942
 H         1.010724        -2.079486        -1.252472
 H         2.310093        -1.374909         1.985906
