19
Iteration:  2686charge 0 multiplicity 1
 C        -0.019829         0.280857        -0.233548
 C         1.355137         0.222813        -0.039125
 C         2.297726         1.420369        -0.033823
 C         3.383970         0.382960         0.526766
 O         4.535973         0.745254         1.250943
 C         3.673162        -0.481888        -0.679154
 C         2.275558        -1.080857        -0.444623
 O         1.790235        -2.355283        -0.687584
 C         2.188988        -0.538232         0.940771
 H        -0.425994         0.907536         0.653680
 H        -0.408446         0.715250        -1.209641
 H        -0.535019        -0.792267        -0.024167
 H         2.528280         2.168938        -0.880757
 H         1.896052         2.032575         0.910497
 H         4.268114         0.508135         2.228927
 H         3.959079        -0.088182        -1.694674
 H         4.507205        -1.280212        -0.471053
 H         1.744057        -2.371536        -1.652261
 H         1.710375        -1.087422         1.798171
