19
Iteration:  4379
 C        -0.019317         0.326439        -0.255718
 C         1.400578         0.168746        -0.068341
 C         2.270968         1.304428        -0.057557
 C         3.417187         0.358310         0.523090
 O         4.449747         0.744119         1.351022
 C         3.640969        -0.588137        -0.679983
 C         2.316459        -1.024188        -0.372499
 O         1.752330        -2.258666        -0.696381
 C         2.258157        -0.554225         0.968938
 H        -0.590649         0.721140         0.593793
 H        -0.285340         1.026541        -1.063416
 H        -0.642590        -0.687531        -0.482479
 H         2.649666         1.888391        -1.009771
 H         1.891672         2.036262         0.666509
 H         4.807229         1.525812         1.019021
 H         3.775351        -0.177176        -1.645267
 H         4.547192        -1.236761        -0.476963
 H         1.484797        -2.381173        -1.646175
 H         2.024187        -0.960503         2.008262
