19
Iteration:  2833charge 0 multiplicity 1
 C        -0.117760         0.260454        -0.147577
 C         1.402734         0.174592        -0.100169
 C         2.358104         1.355811        -0.089646
 C         3.420581         0.428443         0.487960
 O         4.365426         0.722121         1.458304
 C         3.735545        -0.549448        -0.782311
 C         2.299566        -1.093029        -0.414470
 O         1.753919        -2.307720        -0.703297
 C         2.279505        -0.531154         0.943271
 H        -0.497264         0.923613         0.785023
 H        -0.441294         0.989888        -0.960242
 H        -0.764206        -0.628326        -0.194458
 H         2.611057         2.017555        -0.905380
 H         1.954866         2.100401         0.705194
 H         5.093322         1.103106         1.050666
 H         3.757971         0.036680        -1.774872
 H         4.619394        -1.194845        -0.808429
 H         1.603317        -2.212679        -1.684430
 H         1.926125        -0.899567         2.074250
