19
Iteration:  1949
 C        -0.109917         0.302500        -0.090390
 C         1.383390         0.250097        -0.111288
 C         2.457970         1.395491        -0.057626
 C         3.414683         0.386190         0.567225
 O         4.527050         0.730626         1.325460
 C         3.610708        -0.627303        -0.574075
 C         2.181183        -1.016101        -0.413467
 O         1.888971        -2.383400        -0.975054
 C         2.129513        -0.495392         0.965743
 H        -0.526724         1.353993         0.123354
 H        -0.470135         0.058133        -1.054359
 H        -0.442355        -0.390661         0.650383
 H         2.779369         1.824936        -1.117812
 H         2.112282         2.307597         0.474606
 H         4.259356         1.613903         1.745209
 H         4.089356        -0.264752        -1.565505
 H         4.305123        -1.368175        -0.149470
 H         0.999472        -2.702226        -0.842283
 H         1.751201        -0.915818         1.809437
