19
Iteration:   792
 C        -0.122973         0.163393        -0.091976
 C         1.383657         0.134814         0.033922
 C         2.290589         1.333677         0.126610
 C         3.349169         0.373557         0.537167
 O         4.498608         0.890414         1.153329
 C         3.623095        -0.569032        -0.590763
 C         2.317863        -1.108304        -0.337831
 O         1.736131        -2.052591        -1.136851
 C         2.265877        -0.607765         1.090952
 H        -0.762538         0.530854         0.729138
 H        -0.458216         0.787924        -0.900101
 H        -0.321221        -0.905867        -0.215682
 H         2.686506         1.909465        -0.771757
 H         1.945389         1.962578         0.898215
 H         5.263080         0.424573         0.702880
 H         3.970746        -0.243229        -1.627281
 H         4.442733        -1.229219        -0.182391
 H         2.340110        -2.837283        -0.994667
 H         2.154260        -1.008439         1.992709
