19
Iteration:  2780charge 0 multiplicity 1
 C        -0.099394         0.149579        -0.114701
 C         1.417013         0.214546        -0.063472
 C         2.410146         1.316879        -0.058880
 C         3.410952         0.354845         0.549711
 O         4.472811         0.973657         1.285767
 C         3.721808        -0.736043        -0.544384
 C         2.266445        -1.070588        -0.420754
 O         1.724236        -2.209618        -0.974048
 C         2.113236        -0.509739         1.094130
 H        -0.605918         0.951938         0.518631
 H        -0.699024         0.432112        -1.043671
 H        -0.573694        -0.739060         0.217381
 H         2.590746         1.860350        -1.029827
 H         2.260910         2.080546         0.753870
 H         5.257892         0.925045         0.825496
 H         4.371885        -0.328751        -1.406574
 H         4.356477        -1.555860        -0.237611
 H         1.450810        -1.896712        -1.875977
 H         1.865059        -1.156821         2.112655
