19
Iteration:  2386charge 0 multiplicity 1
 C        -0.058636         0.342994        -0.271917
 C         1.372399         0.145913        -0.006590
 C         2.323113         1.393237         0.039144
 C         3.382177         0.349583         0.520149
 O         4.444555         0.775166         1.340812
 C         3.679441        -0.581658        -0.752482
 C         2.280066        -1.079226        -0.377649
 O         1.766191        -2.264864        -0.734176
 C         2.325045        -0.645489         1.013373
 H        -0.485985         1.230984         0.285396
 H        -0.196128         0.348750        -1.466133
 H        -0.772812        -0.385113         0.047029
 H         2.361863         1.784042        -1.004031
 H         1.738221         2.252680         0.598449
 H         4.802199         1.721587         1.144770
 H         3.744151        -0.080242        -1.804540
 H         4.540594        -1.197272        -0.614104
 H         1.617828        -2.338156        -1.721098
 H         1.952307        -1.190010         1.995492
