19
Iteration:  4126charge 0 multiplicity 1
 C         0.008552         0.236282        -0.269841
 C         1.387417         0.273003         0.103489
 C         2.478801         1.375366        -0.021600
 C         3.387282         0.334622         0.478707
 O         4.425594         1.028444         1.264271
 C         3.707772        -0.714182        -0.544521
 C         2.248808        -1.108470        -0.377574
 O         1.623217        -2.206197        -0.993794
 C         2.163580        -0.635881         1.020534
 H        -0.680406         1.030367         0.039949
 H        -0.172864         0.324194        -1.346961
 H        -0.471742        -0.677441         0.057421
 H         2.823221         1.733407        -1.000914
 H         2.248476         2.231494         0.528593
 H         5.058647         0.324803         1.695120
 H         4.148170        -0.365691        -1.526213
 H         4.451091        -1.439778        -0.021900
 H         1.580568        -2.935082        -0.359920
 H         1.950839        -1.069098         2.048924
