19
Iteration:  1729charge 0 multiplicity 1
 C        -0.194908         0.261217        -0.234208
 C         1.372907         0.203218        -0.020367
 C         2.419166         1.429403        -0.004443
 C         3.415867         0.367401         0.554089
 O         4.556920         0.847486         1.351555
 C         3.695999        -0.666138        -0.574750
 C         2.204559        -1.088170        -0.368014
 O         1.764947        -2.264489        -0.936496
 C         2.176200        -0.537913         1.026144
 H        -0.612929         1.085207         0.486790
 H        -0.381128         0.199062        -1.316923
 H        -0.560547        -0.694892         0.191619
 H         2.822047         1.756659        -1.001695
 H         2.134306         2.286346         0.566738
 H         5.353877         0.687037         0.731671
 H         3.743209        -0.209766        -1.569509
 H         4.312208        -1.531303        -0.284240
 H         1.466167        -2.105494        -1.847049
 H         1.809006        -0.999844         1.989715
