19
Iteration:  3425
 C        -0.136619         0.247588        -0.208586
 C         1.404204         0.223806        -0.082452
 C         2.374416         1.324133        -0.042128
 C         3.509648         0.434292         0.509832
 O         4.547805         0.871790         1.330221
 C         3.743770        -0.673326        -0.573449
 C         2.249653        -1.108457        -0.456327
 O         1.675634        -2.295891        -0.909852
 C         2.237497        -0.525677         1.050619
 H        -0.638107         0.855061         0.651017
 H        -0.454009         0.911462        -1.023596
 H        -0.614411        -0.766627        -0.195674
 H         2.423998         1.694144        -1.044751
 H         2.054797         2.088885         0.538622
 H         4.160494         1.594856         1.940585
 H         4.034665        -0.375402        -1.591314
 H         4.397913        -1.489788        -0.251744
 H         0.691935        -2.157085        -0.906265
 H         2.102546        -1.213845         1.902090
