19
Iteration:  3067
 C        -0.063323         0.214494        -0.295148
 C         1.515526         0.122974        -0.032838
 C         2.394412         1.268724        -0.003488
 C         3.513083         0.403173         0.614649
 O         4.566904         0.990331         1.192767
 C         3.664878        -0.724528        -0.627901
 C         2.261837        -1.127419        -0.301860
 O         1.629615        -2.169100        -0.942367
 C         2.152779        -0.586131         1.156164
 H        -0.465174         0.751321         0.546939
 H        -0.217650         0.631872        -1.311988
 H        -0.732516        -0.717362        -0.349675
 H         2.451647         1.873891        -1.016458
 H         2.035018         1.926679         0.858156
 H         4.103229         1.801261         1.601401
 H         3.805610        -0.384694        -1.666629
 H         4.243390        -1.572341        -0.257467
 H         1.018319        -1.826831        -1.588606
 H         1.670538        -1.052967         2.182602
