19
Iteration:   160
 C        -0.138481         0.096884        -0.108532
 C         1.388806         0.146714         0.115912
 C         2.362294         1.311647         0.036599
 C         3.438350         0.408079         0.525639
 O         4.545258         0.785460         1.305329
 C         3.649936        -0.503768        -0.858954
 C         2.298711        -1.037465        -0.403735
 O         1.613785        -2.159929        -0.899988
 C         2.396519        -0.567941         1.000514
 H        -0.700417         0.771330         0.559162
 H        -0.333612         0.046830        -1.219952
 H        -0.496892        -0.880532         0.231126
 H         2.542946         1.697168        -1.030702
 H         2.096274         2.155170         0.793685
 H         4.020140         1.241900         1.961709
 H         3.855389         0.059848        -1.871792
 H         4.450812        -1.329924        -0.746147
 H         1.372744        -1.872430        -1.782308
 H         2.212965        -0.722719         2.052739
