19
Iteration:  2937
 C        -0.170677         0.191750        -0.152431
 C         1.410539         0.140375        -0.020014
 C         2.414350         1.356027        -0.081187
 C         3.427462         0.370169         0.585658
 O         4.553207         0.981824         1.207915
 C         3.717979        -0.725956        -0.529348
 C         2.252745        -1.109879        -0.396077
 O         1.689058        -2.177758        -0.982752
 C         2.206039        -0.546040         1.079031
 H        -0.580156         1.013695         0.432538
 H        -0.483222         0.280016        -1.267363
 H        -0.546223        -0.812425         0.239366
 H         2.729916         1.857008        -1.063699
 H         2.331422         2.067778         0.709392
 H         4.268759         1.130459         2.177461
 H         4.123642        -0.398317        -1.572559
 H         4.317624        -1.622901        -0.200383
 H         1.150521        -1.808056        -1.734119
 H         2.027869        -1.257035         1.963593
