19
Iteration:  3424charge 0 multiplicity 1
 C        -0.136076         0.236233        -0.208803
 C         1.406767         0.216999        -0.082175
 C         2.378813         1.320221        -0.043487
 C         3.506840         0.440415         0.505016
 O         4.552756         0.869508         1.328227
 C         3.748002        -0.671203        -0.568986
 C         2.243814        -1.098493        -0.451103
 O         1.672136        -2.290474        -0.911127
 C         2.236415        -0.527162         1.048779
 H        -0.639765         0.842891         0.658490
 H        -0.445141         0.897291        -1.048323
 H        -0.621956        -0.742831        -0.197490
 H         2.423369         1.674622        -1.019529
 H         2.047741         2.098796         0.568289
 H         4.147088         1.593473         1.947210
 H         4.015573        -0.408994        -1.595890
 H         4.408422        -1.485665        -0.228074
 H         0.701272        -2.133684        -0.903488
 H         2.076265        -1.180241         1.869000
