19
Iteration:   181
 C        -0.109852         0.065737        -0.094787
 C         1.369422         0.172732         0.108426
 C         2.332380         1.439186        -0.014276
 C         3.437594         0.417849         0.528413
 O         4.582512         0.753364         1.255670
 C         3.677886        -0.553113        -0.726424
 C         2.197901        -0.954848        -0.446354
 O         1.729717        -2.187577        -0.941824
 C         2.255130        -0.635003         1.043403
 H        -0.584407         0.681160         0.723799
 H        -0.347875         0.351065        -1.159477
 H        -0.532634        -0.927802         0.078229
 H         2.567816         1.956214        -1.001152
 H         2.131334         2.168838         0.823260
 H         4.669946         1.730834         1.500521
 H         3.955874         0.069490        -1.703561
 H         4.512677        -1.326938        -0.458031
 H         0.806791        -2.242052        -1.263545
 H         2.217574        -1.518282         1.775948
