19
Iteration:  2618charge 0 multiplicity 1
 C        -0.071340         0.162851        -0.154358
 C         1.456801         0.187466        -0.039207
 C         2.428186         1.304033        -0.066047
 C         3.374411         0.373939         0.578128
 O         4.388283         0.957258         1.312022
 C         3.739226        -0.692275        -0.559204
 C         2.320023        -1.072869        -0.346466
 O         1.614401        -2.194862        -0.985795
 C         2.262578        -0.620677         1.044425
 H        -0.437878         0.704193         0.752512
 H        -0.422137         0.743348        -1.124852
 H        -0.502125        -0.898484        -0.152536
 H         2.772635         1.822631        -1.061559
 H         2.145842         2.107233         0.679320
 H         4.820762         1.610370         0.718489
 H         4.138061        -0.157886        -1.484227
 H         4.464953        -1.496897        -0.241560
 H         1.088595        -1.745583        -1.724739
 H         2.078113        -1.172381         2.057107
