19
Iteration:   678
 C        -0.120652         0.053429        -0.190868
 C         1.397252         0.235647        -0.063702
 C         2.332260         1.338445         0.158096
 C         3.462189         0.381401         0.580551
 O         4.575430         0.853965         1.193094
 C         3.655253        -0.485681        -0.711297
 C         2.262012        -0.959004        -0.411870
 O         1.652916        -2.194885        -0.931087
 C         2.174576        -0.557577         1.028403
 H        -0.678700         0.623544         0.595169
 H        -0.653238         0.440869        -1.093353
 H        -0.183799        -1.039159         0.004364
 H         2.653032         1.882073        -0.714858
 H         2.089803         1.915273         1.136079
 H         5.112650         0.066158         1.417766
 H         3.814920         0.086256        -1.637573
 H         4.488158        -1.271118        -0.522765
 H         2.385282        -2.877609        -0.865690
 H         1.671535        -1.009493         1.927995
