19
Iteration:  1103charge 0 multiplicity 1
 C        -0.011247        -0.020086         0.005276
 C         1.450060         0.228217        -0.036778
 C         2.330216         1.377090        -0.157761
 C         3.431793         0.417171         0.474259
 O         4.360223         0.819253         1.422531
 C         3.753671        -0.637278        -0.655770
 C         2.255592        -0.986264        -0.453458
 O         1.570544        -2.105181        -0.916066
 C         2.299134        -0.501886         1.016558
 H        -0.394169         0.484055         0.884622
 H        -0.511475         0.215611        -0.969637
 H        -0.185811        -1.043182         0.146831
 H         2.634397         1.959215        -1.251979
 H         2.115664         2.115690         0.655121
 H         5.219602         0.669480         1.093218
 H         4.098735        -0.283188        -1.662552
 H         4.418486        -1.459030        -0.265714
 H         1.750737        -2.165571        -1.897758
 H         2.150166        -1.003748         1.981930
