19
Iteration:   636charge 0 multiplicity 1
 C        -0.029886         0.282482        -0.183466
 C         1.381971         0.092234         0.175621
 C         2.272421         1.313553         0.085711
 C         3.446459         0.348267         0.530613
 O         4.512792         1.065479         1.225553
 C         3.676045        -0.563462        -0.644015
 C         2.248017        -1.137443        -0.369547
 O         1.617365        -2.178480        -1.158289
 C         2.317010        -0.687309         1.106012
 H        -0.681331         0.742971         0.657819
 H        -0.168517         0.859552        -1.160807
 H        -0.356859        -0.757920        -0.405993
 H         2.244686         1.623707        -1.005952
 H         1.950794         2.087726         0.830815
 H         5.351499         0.693999         1.059804
 H         3.996062        -0.128232        -1.640513
 H         4.399907        -1.363097        -0.197485
 H         1.609879        -3.007974        -0.643739
 H         2.134870        -1.281819         2.131184
