19
Iteration:  2116
 C        -0.001003         0.306886        -0.162043
 C         1.477710         0.127225        -0.024147
 C         2.354329         1.346951        -0.128539
 C         3.394743         0.358225         0.588873
 O         4.488636         0.912224         1.307007
 C         3.687467        -0.698340        -0.543255
 C         2.192520        -1.078777        -0.490399
 O         1.667122        -2.234066        -1.015250
 C         2.206320        -0.530062         1.065081
 H        -0.257066         1.230843         0.237049
 H        -0.348372         0.463961        -1.129902
 H        -0.612721        -0.466721         0.246689
 H         2.646781         1.594050        -1.207950
 H         2.256572         2.106747         0.595789
 H         4.226677         1.414188         2.094713
 H         4.140047        -0.266546        -1.476690
 H         4.359799        -1.451663        -0.073942
 H         1.807335        -2.938372        -0.385048
 H         1.854977        -1.092577         1.872080
