19
Iteration:  3588charge 0 multiplicity 1
 C        -0.143255         0.299191        -0.261965
 C         1.351245         0.220589        -0.072066
 C         2.372856         1.378231        -0.009635
 C         3.416532         0.330330         0.546664
 O         4.537558         0.786608         1.180538
 C         3.673759        -0.639565        -0.581494
 C         2.250490        -1.054259        -0.315112
 O         1.791412        -2.302893        -0.825783
 C         2.212811        -0.512561         1.039596
 H        -0.582022         1.110078         0.352410
 H        -0.428051         0.575031        -1.241282
 H        -0.566997        -0.545996         0.096749
 H         2.647790         2.023848        -0.813001
 H         2.066426         2.007791         0.915266
 H         4.341091         1.508333         1.715049
 H         3.877496        -0.116726        -1.539851
 H         4.329149        -1.464880        -0.288393
 H         1.784207        -2.436848        -1.772658
 H         1.972360        -1.242491         1.866875
