19
Iteration:  4609
 C        -0.144930         0.019676        -0.231091
 C         1.415305         0.229510        -0.077181
 C         2.328449         1.438663         0.004529
 C         3.437145         0.403186         0.503822
 O         4.540418         0.722398         1.314158
 C         3.785318        -0.602732        -0.602360
 C         2.293386        -0.986548        -0.452448
 O         1.596508        -2.168067        -0.794529
 C         2.267707        -0.533767         0.976605
 H        -0.549094         0.320575         0.715541
 H        -0.573971         0.617932        -1.025537
 H        -0.254841        -1.102450        -0.320139
 H         2.643722         2.102920        -0.823867
 H         2.175633         2.163204         0.749509
 H         4.322888         1.583316         1.614121
 H         4.231225        -0.230327        -1.638829
 H         4.513719        -1.412403        -0.180106
 H         1.216556        -2.167203        -1.702077
 H         1.809482        -0.935265         1.955985
