19
Iteration:  2252
 C        -0.104421         0.352587        -0.229619
 C         1.375337         0.174173        -0.053646
 C         2.416463         1.329855        -0.072492
 C         3.460647         0.340605         0.556731
 O         4.383627         0.992593         1.373993
 C         3.742211        -0.595897        -0.652701
 C         2.319329        -1.147410        -0.431210
 O         1.687553        -2.315557        -0.885089
 C         2.203310        -0.573644         0.958908
 H        -0.438368         0.775484         0.684829
 H        -0.493832         1.135734        -0.954236
 H        -0.496155        -0.668572        -0.287205
 H         2.723051         1.898846        -1.020457
 H         2.130211         2.177062         0.699090
 H         5.132885         0.343704         1.665697
 H         3.874619        -0.295718        -1.704608
 H         4.474908        -1.454451        -0.498375
 H         1.371709        -2.794547        -0.095527
 H         1.936517        -1.079712         1.890132
