19
Iteration:  3530charge 0 multiplicity 1
 C        -0.029860         0.068450        -0.269351
 C         1.403250         0.200177        -0.027106
 C         2.443203         1.379798        -0.045737
 C         3.427199         0.395173         0.501148
 O         4.550458         0.851907         1.285772
 C         3.709189        -0.616910        -0.642462
 C         2.268996        -1.073823        -0.338081
 O         1.494157        -2.155278        -0.845562
 C         2.301761        -0.551141         1.077787
 H        -0.451727         0.814180         0.322536
 H        -0.329772         0.007870        -1.316526
 H        -0.411139        -0.881568         0.028908
 H         2.652986         1.893293        -1.007394
 H         2.085468         2.091278         0.672024
 H         4.136361         1.427402         2.044019
 H         4.028550        -0.336889        -1.644675
 H         4.290841        -1.500883        -0.305751
 H         1.464375        -2.073399        -1.827294
 H         1.850229        -0.778502         2.038805
