19
Iteration:  4860charge 0 multiplicity 1
 C        -0.112535         0.196655        -0.151039
 C         1.417932         0.168930        -0.138812
 C         2.350429         1.310478         0.003720
 C         3.370310         0.370235         0.574006
 O         4.486843         0.838881         1.281008
 C         3.722082        -0.608873        -0.682553
 C         2.265271        -0.990367        -0.383576
 O         1.824786        -2.187451        -0.929370
 C         2.188015        -0.598841         1.063407
 H        -0.326429         1.123967         0.436899
 H        -0.616914         0.284063        -1.152660
 H        -0.586160        -0.684168         0.351388
 H         2.639492         1.901132        -0.860172
 H         1.958246         2.026837         0.792417
 H         4.356583         0.956089         2.202590
 H         4.059025        -0.277973        -1.623312
 H         4.423057        -1.406954        -0.313780
 H         1.211353        -2.069797        -1.678634
 H         1.799279        -1.026984         1.910847
