19
Iteration:  3292
 C        -0.121468         0.276198        -0.162698
 C         1.425171         0.164307        -0.069039
 C         2.384358         1.406326        -0.131675
 C         3.403434         0.353469         0.496245
 O         4.508393         0.787609         1.293729
 C         3.668728        -0.609836        -0.599397
 C         2.224822        -1.067438        -0.382736
 O         1.817310        -2.310229        -0.833219
 C         2.215168        -0.510934         1.025126
 H        -0.308271         1.236648         0.436571
 H        -0.574703         0.528494        -1.145914
 H        -0.702480        -0.510316         0.283295
 H         2.851777         1.872013        -1.096898
 H         2.152723         2.110490         0.619516
 H         4.067384         1.123759         2.151575
 H         3.760852        -0.036339        -1.515440
 H         4.424824        -1.397312        -0.584812
 H         1.110340        -2.278313        -1.528230
 H         1.927051        -1.012905         2.020501
