19
Iteration:  1029charge 0 multiplicity 1
 C        -0.120046         0.330880        -0.181776
 C         1.356562         0.240546         0.043290
 C         2.278230         1.471265         0.215008
 C         3.328753         0.368937         0.513383
 O         4.524025         0.847188         1.086699
 C         3.680161        -0.470341        -0.635651
 C         2.303045        -1.165528        -0.398295
 O         1.923006        -2.326419        -0.969719
 C         2.184954        -0.686265         0.994847
 H        -0.568167         0.959088         0.643248
 H        -0.430939         0.768888        -1.144988
 H        -0.591037        -0.657362        -0.115456
 H         2.454687         1.994722        -0.616258
 H         2.033699         2.034178         1.170032
 H         4.936452         0.029301         1.539087
 H         3.857470         0.006281        -1.585343
 H         4.378308        -1.221929        -0.255845
 H         0.999152        -2.602814        -0.917240
 H         1.960828        -1.285175         1.907612
