19
Iteration:   768charge 0 multiplicity 1
 C        -0.075131         0.144798         0.030087
 C         1.430085         0.143048        -0.015680
 C         2.327654         1.324820         0.060578
 C         3.492320         0.348207         0.576042
 O         4.572533         1.109301         1.247905
 C         3.633657        -0.557329        -0.598601
 C         2.237482        -1.095239        -0.458139
 O         1.652715        -2.220158        -1.214834
 C         2.123433        -0.682368         1.030380
 H        -0.491563         0.887288         0.783934
 H        -0.416595         0.763376        -0.798945
 H        -0.537556        -0.796200         0.226270
 H         2.506056         2.121849        -0.719867
 H         2.158770         1.812327         1.012399
 H         5.278771         0.537136         1.478963
 H         4.041972        -0.139174        -1.552808
 H         4.297114        -1.477826        -0.411187
 H         2.264853        -2.921312        -0.875365
 H         1.568228        -1.085857         1.933212
