19
Iteration:   907
 C        -0.184245         0.250026         0.051319
 C         1.353422         0.138813         0.130070
 C         2.326195         1.253019        -0.039262
 C         3.401814         0.370141         0.514812
 O         4.531888         0.931737         1.168761
 C         3.666845        -0.550494        -0.600422
 C         2.270155        -1.068553        -0.400439
 O         1.820190        -2.109152        -1.208145
 C         2.146826        -0.666676         1.101156
 H        -0.684637         0.964990         0.747935
 H        -0.559195         0.581086        -0.950297
 H        -0.460377        -0.760711         0.267573
 H         2.555560         1.623558        -1.036848
 H         2.361223         2.155205         0.744156
 H         4.954349         0.265161         1.759376
 H         3.972739         0.120020        -1.427935
 H         4.406069        -1.369231        -0.493568
 H         2.388605        -2.926629        -1.069372
 H         1.968543        -1.090959         2.106020
