19
Iteration:  2370
 C        -0.134466         0.325446        -0.309735
 C         1.430661         0.119788        -0.030058
 C         2.298361         1.342579         0.041678
 C         3.422845         0.399264         0.487878
 O         4.441373         0.788688         1.387762
 C         3.672413        -0.552818        -0.793855
 C         2.310450        -1.072920        -0.378798
 O         1.658183        -2.297614        -0.740538
 C         2.341740        -0.581048         1.015718
 H        -0.444676         1.320853        -0.045715
 H        -0.411705         0.374829        -1.311948
 H        -0.693198        -0.515499         0.201200
 H         2.582160         2.038398        -0.731599
 H         2.296178         1.859352         0.918088
 H         4.576700         1.742169         1.392739
 H         3.844473        -0.144184        -1.768814
 H         4.415987        -1.385371        -0.540906
 H         2.022923        -2.447274        -1.655319
 H         2.420795        -1.045453         1.922612
