19
Iteration:  4256charge 0 multiplicity 1
 C        -0.000032         0.306337        -0.289131
 C         1.457952         0.166945        -0.042041
 C         2.414407         1.364355        -0.024971
 C         3.363692         0.328619         0.511859
 O         4.360466         0.940044         1.256980
 C         3.701363        -0.637742        -0.601481
 C         2.243126        -1.057584        -0.341292
 O         1.714322        -2.250992        -0.876626
 C         2.289884        -0.657204         1.089835
 H        -0.455100         1.164487         0.307256
 H        -0.217767         0.462178        -1.370527
 H        -0.692265        -0.490388        -0.004127
 H         2.731459         1.922799        -0.964221
 H         1.968387         1.991486         0.751642
 H         5.245810         0.552026         1.179610
 H         3.918898        -0.262469        -1.594757
 H         4.279056        -1.485834        -0.308851
 H         0.760460        -2.330470        -0.620240
 H         1.933951        -0.883780         2.023956
