19
Iteration:  4046charge 0 multiplicity 1
 C        -0.181104         0.307851        -0.303113
 C         1.343622         0.242420        -0.105429
 C         2.420264         1.369872        -0.063469
 C         3.482218         0.369304         0.460193
 O         4.439278         0.789578         1.475716
 C         3.676120        -0.686338        -0.707936
 C         2.283769        -1.043922        -0.358935
 O         1.819296        -2.311595        -0.792678
 C         2.255592        -0.503856         1.024033
 H        -0.450548         1.036222         0.495305
 H        -0.472517         0.553535        -1.346716
 H        -0.616557        -0.601690        -0.020278
 H         2.486248         1.928379        -0.961852
 H         2.113934         1.965861         0.743085
 H         4.977058         1.548160         1.007515
 H         3.709089        -0.441678        -1.818871
 H         4.245429        -1.600814        -0.398454
 H         0.836727        -2.268037        -0.732150
 H         1.989735        -1.008496         1.886763
