19
Iteration:  4972charge 0 multiplicity 1
 C        -0.125146         0.413429        -0.074406
 C         1.313505         0.119411        -0.059441
 C         2.270372         1.344125        -0.004509
 C         3.407164         0.365960         0.534489
 O         4.419702         0.950480         1.322121
 C         3.814604        -0.649885        -0.643421
 C         2.265955        -1.099200        -0.421091
 O         1.930334        -2.305306        -0.906647
 C         2.138278        -0.659173         0.958229
 H        -0.392662         1.025580         0.842971
 H        -0.166240         1.107048        -0.979771
 H        -0.863822        -0.338400        -0.219444
 H         2.476079         2.025301        -0.816468
 H         1.662825         1.839292         0.737422
 H         5.258504         0.443231         0.978784
 H         4.219498        -0.108972        -1.505501
 H         4.474467        -1.469970        -0.327259
 H         1.276290        -2.196723        -1.630396
 H         1.754404        -1.239395         1.915986
