19
Iteration:  4456charge 0 multiplicity 1
 C        -0.089564         0.133944        -0.190514
 C         1.423666         0.197024        -0.004594
 C         2.356093         1.310422        -0.107011
 C         3.432178         0.431869         0.563736
 O         4.532930         0.907677         1.303911
 C         3.759871        -0.640054        -0.650764
 C         2.315231        -1.055669        -0.324927
 O         1.562823        -2.227390        -0.945606
 C         2.248956        -0.521239         1.054525
 H        -0.683494         0.896933         0.293251
 H        -0.356814         0.136219        -1.262053
 H        -0.534571        -0.885504         0.158314
 H         2.601896         1.738829        -1.166270
 H         2.122858         2.084318         0.636183
 H         4.312343         0.558626         2.225341
 H         4.091622        -0.142675        -1.488023
 H         4.496583        -1.406972        -0.276989
 H         1.326823        -1.932589        -1.835433
 H         2.048408        -0.775290         2.016494
