19
Iteration:   643
 C        -0.066893         0.253259        -0.208011
 C         1.385943         0.120907         0.162406
 C         2.267037         1.296355         0.130847
 C         3.447301         0.489207         0.495900
 O         4.518024         1.001216         1.198264
 C         3.654960        -0.573550        -0.591483
 C         2.221467        -1.129721        -0.409999
 O         1.632218        -2.175693        -1.141356
 C         2.345347        -0.706831         1.127677
 H        -0.625360         0.655735         0.592992
 H        -0.165542         0.762401        -1.165580
 H        -0.551715        -0.743034        -0.444908
 H         2.311114         1.796746        -0.815657
 H         2.094284         2.161500         0.865420
 H         5.328628         0.525334         0.977477
 H         4.094357        -0.429635        -1.572209
 H         4.392101        -1.204385        -0.019020
 H         1.747034        -3.037399        -0.648906
 H         2.215002        -1.249654         1.943523
