19
Iteration:  2483
 C        -0.110515         0.220495        -0.114066
 C         1.400403         0.182020        -0.057344
 C         2.378301         1.275769        -0.082751
 C         3.514720         0.382625         0.465964
 O         4.482252         1.040981         1.343579
 C         3.695577        -0.659541        -0.632578
 C         2.300170        -1.110197        -0.367858
 O         1.681540        -2.199314        -0.921973
 C         2.201722        -0.648123         1.064613
 H        -0.698543         0.628377         0.707331
 H        -0.552443         0.942523        -0.952731
 H        -0.386548        -0.799614        -0.351802
 H         2.650661         1.709360        -1.088272
 H         2.148733         2.117559         0.484825
 H         4.605828         0.591658         2.266154
 H         3.816867        -0.162510        -1.672484
 H         4.411569        -1.481929        -0.482951
 H         1.323877        -2.010148        -1.824152
 H         1.812714        -1.283934         1.978361
