19
Iteration:  2731charge 0 multiplicity 1
 C        -0.003461         0.158808        -0.266809
 C         1.433066         0.198457         0.003026
 C         2.332537         1.328023         0.006143
 C         3.461934         0.400913         0.499583
 O         4.436820         0.887784         1.277919
 C         3.694026        -0.565094        -0.692841
 C         2.281318        -1.104855        -0.374887
 O         1.635529        -2.178790        -0.803241
 C         2.253280        -0.557242         1.064667
 H        -0.730119         0.959683         0.094988
 H        -0.087228         0.219273        -1.370725
 H        -0.578827        -0.822293        -0.020075
 H         2.521476         1.738353        -1.006915
 H         2.138667         2.124797         0.851334
 H         4.793579         0.254404         2.015499
 H         3.916866        -0.073720        -1.692289
 H         4.506253        -1.342903        -0.493036
 H         1.036310        -2.117397        -1.563939
 H         2.205461        -1.156308         1.849016
