19
Iteration:  1261
 C        -0.090348        -0.030126        -0.016914
 C         1.378900         0.267216        -0.004763
 C         2.365260         1.486541        -0.215893
 C         3.399940         0.449882         0.547936
 O         4.597730         0.661898         1.275302
 C         3.685104        -0.641979        -0.562651
 C         2.185356        -0.986919        -0.380593
 O         1.754672        -2.204221        -0.973860
 C         2.141899        -0.413321         1.023396
 H        -0.489848         0.460386         0.864562
 H        -0.641604         0.234924        -0.838128
 H        -0.204898        -1.164929         0.104958
 H         2.524492         1.597586        -1.360505
 H         2.083537         2.426732         0.399741
 H         4.460621         1.316132         1.995066
 H         3.906987        -0.339289        -1.577382
 H         4.284218        -1.386509        -0.064448
 H         1.869291        -1.892815        -1.911393
 H         2.090896        -0.723651         1.994342
