19
Iteration:  3174
 C        -0.103918         0.379326        -0.279948
 C         1.330667         0.196353        -0.059912
 C         2.289463         1.374360        -0.047297
 C         3.436872         0.399652         0.492279
 O         4.573991         0.729131         1.254449
 C         3.679653        -0.619574        -0.678955
 C         2.244721        -1.040930        -0.348801
 O         1.771394        -2.337606        -0.732735
 C         2.201645        -0.537834         1.052672
 H        -0.627629         1.161472         0.387419
 H        -0.367889         0.767229        -1.240689
 H        -0.596295        -0.598669        -0.142587
 H         2.619457         1.904980        -0.862016
 H         1.935621         2.110655         0.731767
 H         4.137071         1.203887         2.044256
 H         3.867782        -0.124863        -1.672663
 H         4.557753        -1.307468        -0.612852
 H         2.327341        -2.592999        -1.472408
 H         1.987023        -1.184611         2.054027
