19
Iteration:  1458
 C        -0.109561         0.432108        -0.102490
 C         1.369172         0.138452         0.002933
 C         2.358237         1.312181        -0.059901
 C         3.381245         0.363771         0.508473
 O         4.418716         0.846652         1.247593
 C         3.748874        -0.631328        -0.676642
 C         2.330377        -1.131563        -0.363488
 O         1.804327        -2.304928        -0.890212
 C         2.232616        -0.604318         1.002503
 H        -0.310473         1.245170         0.711686
 H        -0.365558         0.774909        -1.196244
 H        -0.763479        -0.512525         0.226762
 H         2.540370         1.869350        -0.945187
 H         2.156306         2.127691         0.726192
 H         4.023017         1.244887         1.995983
 H         3.925219        -0.083690        -1.656373
 H         4.579885        -1.359100        -0.546669
 H         1.222536        -1.968027        -1.630574
 H         2.011589        -1.141457         1.976221
