19
Iteration:  4528charge 0 multiplicity 1
 C        -0.112761         0.351710        -0.172856
 C         1.358386         0.187548        -0.032134
 C         2.306158         1.392592        -0.015162
 C         3.399617         0.460123         0.564066
 O         4.572584         0.791453         1.275129
 C         3.684539        -0.521162        -0.587580
 C         2.188632        -1.072369        -0.462295
 O         1.828622        -2.402432        -0.837292
 C         2.233159        -0.684908         0.937625
 H        -0.597749         1.043799         0.578877
 H        -0.459762         0.662705        -1.169637
 H        -0.645266        -0.586433        -0.093514
 H         2.652091         1.845330        -0.914775
 H         1.999324         2.113464         0.772321
 H         4.529791         1.645650         1.728913
 H         4.103486        -0.177952        -1.621299
 H         4.175004        -1.414007        -0.150689
 H         1.511167        -2.300169        -1.753229
 H         1.940770        -1.002390         1.957736
