19
Iteration:  4786charge 0 multiplicity 1
 C        -0.146644         0.235236        -0.151177
 C         1.401214         0.185248        -0.116266
 C         2.374901         1.384450         0.085931
 C         3.439042         0.376597         0.523763
 O         4.468517         0.810507         1.361361
 C         3.749852        -0.545385        -0.670001
 C         2.271219        -1.056312        -0.463405
 O         1.717225        -2.298031        -0.858418
 C         2.194378        -0.578606         0.990320
 H        -0.346968         0.260163         0.920740
 H        -0.667423         0.951325        -0.793920
 H        -0.400834        -0.695286        -0.539452
 H         2.741175         1.870360        -0.893883
 H         1.989197         2.025234         0.862476
 H         4.479826         1.766560         1.329286
 H         4.045546        -0.085215        -1.688808
 H         4.414080        -1.371900        -0.440177
 H         1.755177        -2.346092        -1.840535
 H         1.923434        -1.166538         1.772751
