19
Iteration:  1274charge 0 multiplicity 1
 C        -0.065005         0.053921        -0.018076
 C         1.400316         0.241117        -0.037781
 C         2.348450         1.352328        -0.198573
 C         3.411428         0.366067         0.511940
 O         4.532452         0.759733         1.232369
 C         3.631999        -0.613086        -0.586756
 C         2.248240        -0.985778        -0.358880
 O         1.760877        -2.110044        -0.930546
 C         2.206962        -0.509871         1.089799
 H        -0.617645         0.646974         0.724749
 H        -0.545780         0.306050        -0.962227
 H        -0.181422        -1.032437         0.213384
 H         2.683726         1.745892        -1.296754
 H         2.067031         2.342169         0.329348
 H         4.219892         0.902750         2.141037
 H         4.088294        -0.165792        -1.463730
 H         4.233207        -1.497769        -0.396308
 H         1.792389        -2.170724        -1.887956
 H         1.696090        -0.896276         2.066281
