19
Iteration:  4680charge 0 multiplicity 1
 C        -0.205102         0.420338        -0.161795
 C         1.366726         0.125635        -0.064419
 C         2.310347         1.247746         0.066509
 C         3.430693         0.362486         0.469621
 O         4.451190         0.924796         1.223765
 C         3.822984        -0.651072        -0.599775
 C         2.297364        -1.038939        -0.408546
 O         1.824747        -2.264904        -0.888627
 C         2.210652        -0.681855         0.996547
 H        -0.301754         1.431986         0.371297
 H        -0.773890         0.553829        -1.122667
 H        -0.640406        -0.225596         0.580170
 H         2.164892         1.854348        -0.833432
 H         2.287589         1.938535         0.971723
 H         4.290146         0.898705         2.138899
 H         4.066873        -0.276541        -1.527414
 H         4.483410        -1.383134        -0.312645
 H         1.604853        -2.064456        -1.828567
 H         1.919131        -1.274585         1.735337
