19
Iteration:  4708charge 0 multiplicity 1
 C        -0.037066         0.254744        -0.235439
 C         1.416860         0.135513         0.030479
 C         2.348981         1.356068         0.118035
 C         3.374963         0.445930         0.588461
 O         4.557272         0.934864         1.250247
 C         3.658265        -0.580000        -0.601131
 C         2.230885        -1.088479        -0.465604
 O         1.690238        -2.351307        -0.954376
 C         2.240167        -0.635215         0.971198
 H        -0.339311         1.174100         0.249208
 H        -0.226010         0.356075        -1.308911
 H        -0.554826        -0.565749         0.268289
 H         2.512060         1.867228        -0.860739
 H         2.138817         2.063291         0.923665
 H         4.309316         1.373069         2.017067
 H         3.908121        -0.238832        -1.708228
 H         4.472337        -1.258515        -0.173053
 H         1.280343        -2.140941        -1.826868
 H         2.058510        -1.206872         1.930337
