19
Iteration:   137charge 0 multiplicity 1
 C         0.034776         0.124230        -0.045894
 C         1.484221         0.153439        -0.010009
 C         2.292897         1.434375         0.037710
 C         3.434417         0.413834         0.479435
 O         4.518524         0.888982         1.230103
 C         3.626427        -0.515991        -0.688236
 C         2.283883        -1.080174        -0.391725
 O         1.530741        -2.183864        -0.931298
 C         2.309867        -0.642289         1.003682
 H        -0.341646         0.980023         0.543276
 H        -0.280984         0.069659        -1.110677
 H        -0.422528        -0.743566         0.447796
 H         2.271936         2.088067        -0.904410
 H         1.994715         1.962422         0.979880
 H         4.212430         0.356430         2.031186
 H         3.730894        -0.004367        -1.739553
 H         4.508195        -1.275979        -0.614702
 H         2.078687        -2.459054        -1.708772
 H         2.172866        -1.466824         1.790846
