19
Iteration:  4724charge 0 multiplicity 1
 C        -0.065302         0.123015        -0.269310
 C         1.421291         0.186826         0.038709
 C         2.341771         1.418491        -0.006025
 C         3.470436         0.371420         0.537857
 O         4.578266         0.809924         1.293813
 C         3.674300        -0.484780        -0.656501
 C         2.257825        -1.067751        -0.347507
 O         1.670306        -2.239001        -0.919473
 C         2.207457        -0.660317         1.101531
 H        -0.822292         0.776526         0.241382
 H        -0.280794         0.349220        -1.342207
 H        -0.460781        -0.889101        -0.056352
 H         2.618863         1.957422        -0.916360
 H         1.922488         2.203829         0.649477
 H         4.314388         1.603413         1.754652
 H         3.888803         0.126951        -1.532720
 H         4.364063        -1.285786        -0.603779
 H         1.277482        -2.002594        -1.789425
 H         1.829848        -1.196750         1.946882
