19
Iteration:  1438
 C        -0.042608         0.291204        -0.020087
 C         1.444209         0.174481        -0.016630
 C         2.454011         1.260663        -0.151681
 C         3.477183         0.367034         0.518965
 O         4.386448         0.951944         1.415859
 C         3.703770        -0.611345        -0.705921
 C         2.223754        -1.090342        -0.457971
 O         1.626724        -2.257840        -0.895892
 C         2.280414        -0.665324         1.007809
 H        -0.434433         1.068351         0.707740
 H        -0.344886         0.799772        -0.971284
 H        -0.600936        -0.701096         0.045981
 H         2.646987         1.556499        -1.155286
 H         2.227810         2.151447         0.470278
 H         3.894355         1.734864         1.734921
 H         4.030550        -0.133672        -1.666652
 H         4.406111        -1.437537        -0.516655
 H         1.684921        -2.324223        -1.880933
 H         2.102287        -1.113636         1.944257
