19
Iteration:   111
 C        -0.254907         0.136814        -0.008362
 C         1.361904         0.121465        -0.016387
 C         2.388276         1.389656         0.078636
 C         3.446372         0.318762         0.563917
 O         4.544175         0.952875         1.204814
 C         3.725433        -0.567967        -0.681356
 C         2.244542        -1.012915        -0.501102
 O         1.660743        -2.178371        -1.015808
 C         2.286310        -0.591262         1.023780
 H        -0.505048         1.048860         0.555325
 H        -0.555241         0.407617        -1.014598
 H        -0.853788        -0.716578         0.372781
 H         2.589543         2.085002        -0.723934
 H         2.135532         1.982801         0.935148
 H         5.170022         0.160387         1.317843
 H         3.970953        -0.123161        -1.668338
 H         4.332293        -1.450018        -0.430639
 H         2.351939        -2.878495        -0.805843
 H         2.017791        -1.004309         2.036256
