19
Iteration:  1120
 C        -0.186930        -0.076441        -0.039410
 C         1.324590         0.206135        -0.146044
 C         2.428729         1.496604        -0.036242
 C         3.508074         0.436347         0.517582
 O         4.544834         0.786506         1.434730
 C         3.688605        -0.641304        -0.666195
 C         2.248997        -1.006277        -0.457990
 O         1.661655        -2.163771        -0.855638
 C         2.229419        -0.458839         0.916698
 H        -0.667121         0.599306         0.708805
 H        -0.722767         0.166811        -0.982597
 H        -0.322811        -1.211922         0.178336
 H         2.511985         1.913748        -0.935289
 H         2.075303         2.234443         0.674640
 H         5.322591         0.846230         0.890636
 H         4.069847        -0.181390        -1.589439
 H         4.255207        -1.398307        -0.133125
 H         1.702777        -2.114332        -1.856341
 H         1.885035        -0.859889         1.844022
