19
Iteration:  4422
 C        -0.049718         0.312050        -0.268934
 C         1.399000         0.230538         0.020898
 C         2.368713         1.307799         0.070691
 C         3.386539         0.386651         0.607759
 O         4.512553         1.025056         1.175863
 C         3.690994        -0.659068        -0.584719
 C         2.222892        -1.140056        -0.424510
 O         1.758830        -2.312640        -0.890188
 C         2.161981        -0.597046         1.060596
 H        -0.789129         0.829567         0.340735
 H        -0.226861         0.659241        -1.296902
 H        -0.417590        -0.795387        -0.226346
 H         2.542137         1.890890        -0.923207
 H         2.086784         2.018834         0.840777
 H         5.132933         0.331246         1.345617
 H         4.130951        -0.321761        -1.489159
 H         4.368882        -1.492331        -0.267817
 H         1.069776        -1.989315        -1.512658
 H         1.909947        -1.185256         1.958550
