19
Iteration:  1521charge 0 multiplicity 1
 C        -0.024861         0.066659        -0.325483
 C         1.417849         0.234821         0.044629
 C         2.392988         1.395973         0.051301
 C         3.393006         0.369901         0.531163
 O         4.531191         0.737058         1.236627
 C         3.636011        -0.627374        -0.722898
 C         2.294201        -1.039679        -0.319738
 O         1.681393        -2.119551        -0.955728
 C         2.217498        -0.498899         1.121276
 H        -0.647164         0.615614         0.337799
 H        -0.191367         0.275129        -1.351590
 H        -0.471417        -0.870672        -0.225330
 H         2.684192         1.947742        -0.907998
 H         2.227530         2.171234         0.825070
 H         4.464491         1.483613         1.790667
 H         3.707570         0.005179        -1.581048
 H         4.384067        -1.399532        -0.561092
 H         1.052476        -2.555699        -0.347659
 H         1.787594        -0.941643         2.076441
