19
Iteration:  2878
 C        -0.142675         0.211320        -0.295356
 C         1.343618         0.172111        -0.002307
 C         2.331566         1.393732         0.040475
 C         3.444408         0.347030         0.489651
 O         4.550432         0.788523         1.351931
 C         3.720319        -0.561391        -0.701200
 C         2.303168        -1.049871        -0.443885
 O         1.671476        -2.238717        -0.737106
 C         2.265009        -0.575062         1.000865
 H        -0.950712         0.697693         0.359457
 H        -0.441799         0.513270        -1.317405
 H        -0.387938        -0.842273        -0.268515
 H         2.444258         1.987434        -0.885807
 H         2.210548         2.106556         0.876031
 H         4.824855         1.667449         1.226630
 H         4.059243        -0.222662        -1.691654
 H         4.403824        -1.339261        -0.344647
 H         1.382871        -2.209670        -1.679222
 H         2.034996        -0.987497         1.959451
