19
Iteration:  2205charge 0 multiplicity 1
 C        -0.138022         0.257181        -0.333524
 C         1.335838         0.200383        -0.113191
 C         2.332797         1.388331        -0.053596
 C         3.409699         0.380739         0.491231
 O         4.510589         0.673001         1.354603
 C         3.701271        -0.597712        -0.639403
 C         2.301444        -1.089168        -0.269708
 O         1.731711        -2.213559        -0.811274
 C         2.166905        -0.458170         1.102345
 H        -0.664532         1.044262         0.250914
 H        -0.233745         0.727876        -1.324526
 H        -0.576765        -0.792574        -0.295911
 H         2.608362         2.016093        -1.007366
 H         1.943480         2.123973         0.640627
 H         5.183773         1.172594         0.820470
 H         3.894538        -0.113126        -1.622622
 H         4.633936        -1.239001        -0.340915
 H         2.393674        -2.862218        -0.996695
 H         1.926499        -0.984974         2.102313
