19
Iteration:  1609
 C        -0.163837         0.388217        -0.081069
 C         1.332486         0.254912        -0.080903
 C         2.294261         1.446284        -0.135081
 C         3.384009         0.421488         0.563248
 O         4.602276         0.682959         1.334452
 C         3.656854        -0.636818        -0.570738
 C         2.224385        -1.199374        -0.405126
 O         1.893845        -2.413991        -0.967931
 C         2.159880        -0.472708         1.026820
 H        -0.522834         1.155882         0.737206
 H        -0.522245         0.718511        -1.084179
 H        -0.441880        -0.648720         0.063417
 H         2.649735         2.001076        -1.078883
 H         2.052764         2.166507         0.691314
 H         4.432406         1.560101         1.578823
 H         4.062480        -0.067309        -1.413846
 H         4.325595        -1.366511        -0.116119
 H         1.742328        -2.169334        -1.929170
 H         1.945971        -0.668751         1.999477
