19
Iteration:   897
 C        -0.264357         0.229579         0.030999
 C         1.319145         0.126486         0.079542
 C         2.336745         1.295428        -0.002430
 C         3.373941         0.337002         0.609707
 O         4.565359         0.901701         1.184334
 C         3.677508        -0.528252        -0.672963
 C         2.263460        -1.037204        -0.407232
 O         1.842761        -2.109484        -1.167432
 C         2.267666        -0.626096         1.055540
 H        -0.592533         0.973557         0.823582
 H        -0.566847         0.502826        -1.008714
 H        -0.843635        -0.649755         0.242532
 H         2.561084         1.651403        -1.035730
 H         1.940622         2.237193         0.608681
 H         4.926570         0.081923         1.666263
 H         4.065183        -0.120716        -1.604260
 H         4.331397        -1.392970        -0.366271
 H         2.240159        -2.905122        -0.743761
 H         2.033583        -1.175884         1.934770
