19
Iteration:   696
 C        -0.073831         0.030636        -0.095470
 C         1.425944         0.131154        -0.031371
 C         2.444635         1.574221        -0.004408
 C         3.416566         0.394677         0.582171
 O         4.540830         0.827887         1.364259
 C         3.549121        -0.436713        -0.777753
 C         2.203464        -1.104625        -0.468330
 O         1.626732        -2.208040        -0.927705
 C         2.273643        -0.598812         0.987736
 H        -0.655711         0.689641         0.498666
 H        -0.358426         0.393893        -1.068283
 H        -0.415699        -1.001489         0.145163
 H         2.727549         2.187685        -0.891472
 H         2.055046         2.217301         0.813916
 H         5.003665         0.089976         1.786094
 H         3.722647         0.131299        -1.694657
 H         4.407243        -1.027510        -0.689377
 H         2.205492        -3.023278        -0.935134
 H         2.059291        -1.025872         1.855933
