19
Iteration:  2225
 C        -0.038616         0.342235        -0.307094
 C         1.418253         0.159358        -0.092225
 C         2.316202         1.417528        -0.014050
 C         3.391480         0.382733         0.554249
 O         4.417388         0.787051         1.356638
 C         3.677145        -0.568977        -0.627390
 C         2.231284        -1.070601        -0.449783
 O         1.716260        -2.325584        -0.776726
 C         2.248087        -0.533800         0.963752
 H        -0.444994         0.869466         0.697965
 H        -0.219085         0.933005        -1.200378
 H        -0.590978        -0.628942        -0.326063
 H         2.637738         2.018401        -0.856464
 H         1.911189         2.073084         0.689096
 H         5.369374         0.771149         0.973056
 H         3.972203        -0.359533        -1.671754
 H         4.290991        -1.430552        -0.306401
 H         2.432225        -2.890965        -0.432013
 H         1.879617        -0.853115         1.945745
