19
Iteration:  4725
 C        -0.069529         0.116246        -0.270643
 C         1.420783         0.181616         0.039704
 C         2.340632         1.412224        -0.013372
 C         3.461089         0.363059         0.536400
 O         4.580386         0.805295         1.298245
 C         3.681690        -0.479565        -0.662250
 C         2.258683        -1.060926        -0.342638
 O         1.672640        -2.226007        -0.913196
 C         2.207149        -0.651314         1.094829
 H        -0.837190         0.744826         0.234032
 H        -0.263316         0.372796        -1.336837
 H        -0.465680        -0.929566        -0.055673
 H         2.644193         1.955345        -0.909769
 H         1.922317         2.227214         0.670693
 H         4.342738         1.584011         1.723975
 H         3.850318         0.085984        -1.528793
 H         4.378050        -1.289821        -0.620456
 H         1.284860        -1.977697        -1.786581
 H         1.811852        -1.196433         1.990254
