19
Iteration:  2823
 C        -0.136514         0.287329        -0.109983
 C         1.370282         0.094836        -0.080591
 C         2.330120         1.443683        -0.105105
 C         3.447073         0.347159         0.492961
 O         4.396374         0.753789         1.447556
 C         3.757042        -0.529151        -0.711133
 C         2.321372        -1.082175        -0.399032
 O         1.747822        -2.337435        -0.798353
 C         2.247440        -0.450599         0.966258
 H        -0.447672         0.875596         0.898813
 H        -0.426352         0.886479        -1.077289
 H        -0.740243        -0.634219        -0.118844
 H         2.595212         1.816925        -1.128054
 H         2.002311         2.223690         0.653035
 H         5.195193         0.995919         1.016766
 H         3.705745        -0.150276        -1.801651
 H         4.547811        -1.304554        -0.570379
 H         1.595445        -2.288886        -1.791182
 H         1.935417        -0.995337         2.022887
