19
Iteration:  2905charge 0 multiplicity 1
 C        -0.014218         0.174242        -0.238798
 C         1.430367         0.085670         0.025158
 C         2.358395         1.378835        -0.023644
 C         3.370747         0.407483         0.592655
 O         4.576752         0.865086         1.202522
 C         3.635670        -0.634941        -0.562582
 C         2.263420        -1.145988        -0.402752
 O         1.639055        -2.177795        -0.955472
 C         2.209886        -0.545557         1.151664
 H        -0.617020         0.841400         0.343993
 H        -0.167342         0.342410        -1.376051
 H        -0.532078        -0.834959        -0.043352
 H         2.647070         1.920993        -1.000975
 H         2.152545         2.125453         0.770696
 H         4.618696         1.771211         1.403052
 H         3.929501        -0.158226        -1.584756
 H         4.400190        -1.378395        -0.194422
 H         1.494563        -1.850482        -1.867340
 H         1.883703        -0.991523         2.217835
