19
Iteration:  1962
 C        -0.166848         0.318883        -0.174809
 C         1.369282         0.220629        -0.089673
 C         2.401325         1.345133        -0.126139
 C         3.394430         0.378123         0.586050
 O         4.601962         0.818731         1.305664
 C         3.636162        -0.716293        -0.552167
 C         2.201313        -1.106606        -0.380704
 O         1.915156        -2.231349        -1.025377
 C         2.134986        -0.517635         1.076040
 H        -0.423156         1.276340         0.310550
 H        -0.698321         0.205999        -1.118652
 H        -0.733460        -0.403003         0.548179
 H         2.886367         1.799271        -1.106604
 H         2.142066         2.074168         0.636493
 H         4.439736         1.558041         1.894083
 H         3.829094        -0.539385        -1.652723
 H         4.210549        -1.571388        -0.218921
 H         0.956109        -2.409536        -0.792428
 H         1.797629        -1.029629         2.061318
