19
Iteration:  3563
 C        -0.031973         0.093466        -0.300180
 C         1.422785         0.163714         0.054656
 C         2.378286         1.373038        -0.045322
 C         3.453455         0.390294         0.556753
 O         4.551029         0.838901         1.289104
 C         3.692630        -0.603839        -0.678412
 C         2.285672        -1.035231        -0.375606
 O         1.520729        -2.161700        -0.816499
 C         2.253924        -0.576824         1.028603
 H        -0.481230         0.934251         0.197327
 H        -0.177779         0.359395        -1.370509
 H        -0.571855        -0.751873         0.079645
 H         2.659584         1.833308        -1.010322
 H         2.093429         2.100751         0.625501
 H         4.355483         1.648487         1.750154
 H         3.973002        -0.279512        -1.679034
 H         4.316977        -1.403787        -0.240205
 H         1.651960        -2.530744        -1.688674
 H         1.887514        -0.973614         2.013715
