19
Iteration:  1770
 C        -0.065823         0.361373        -0.051280
 C         1.445590         0.247443        -0.097690
 C         2.389104         1.463523        -0.131628
 C         3.389377         0.448374         0.512889
 O         4.362721         0.692431         1.453380
 C         3.751828        -0.629337        -0.772332
 C         2.365433        -1.116766        -0.475530
 O         1.626445        -2.321778        -0.763295
 C         2.264378        -0.601609         0.903471
 H        -0.451003         0.984294         0.759759
 H        -0.586963         0.633610        -0.998716
 H        -0.418717        -0.621902         0.085003
 H         2.622685         1.957449        -1.110998
 H         2.027094         2.071028         0.681178
 H         4.388453         1.599036         1.658990
 H         4.043822        -0.222802        -1.766528
 H         4.512600        -1.160623        -0.150301
 H         1.885532        -2.758141        -1.577925
 H         1.980394        -1.069003         1.846520
