19
Iteration:   421charge 0 multiplicity 1
 C        -0.130110         0.128771        -0.015406
 C         1.356967         0.194987        -0.013412
 C         2.356158         1.493837        -0.105822
 C         3.347603         0.478507         0.471055
 O         4.470290         0.655540         1.359058
 C         3.677834        -0.519607        -0.678781
 C         2.282889        -1.010753        -0.456830
 O         1.732897        -2.176195        -0.881641
 C         2.242231        -0.543700         0.936272
 H        -0.654184         0.398794         0.932343
 H        -0.579426         0.779857        -0.772125
 H        -0.349857        -0.886457        -0.231647
 H         2.622933         1.837031        -1.134134
 H         1.944017         2.203183         0.548506
 H         5.210771         0.163187         0.881417
 H         4.137915        -0.263455        -1.672622
 H         4.483238        -1.138790        -0.175202
 H         2.344322        -2.873219        -0.505439
 H         2.288633        -1.116837         1.962449
