19
Iteration:   144
 C        -0.006052         0.080248        -0.063238
 C         1.473708         0.128067         0.004609
 C         2.314480         1.446319         0.011199
 C         3.447951         0.397372         0.468600
 O         4.495085         0.858078         1.263328
 C         3.634453        -0.521458        -0.759784
 C         2.280766        -1.076753        -0.391725
 O         1.543715        -2.154562        -0.920465
 C         2.348840        -0.621630         1.061000
 H        -0.326071         1.008574         0.441716
 H        -0.331668         0.164224        -1.089739
 H        -0.552429        -0.779750         0.372134
 H         2.420115         2.075142        -0.856271
 H         2.031500         1.953602         0.880898
 H         4.233029         0.657659         2.205154
 H         3.624845        -0.070271        -1.735872
 H         4.502645        -1.160264        -0.737775
 H         1.858867        -2.304941        -1.811148
 H         2.300278        -1.353261         1.993493
