19
Iteration:  1629charge 0 multiplicity 1
 C        -0.198911         0.306142        -0.126513
 C         1.387301         0.171014        -0.063327
 C         2.357515         1.375858        -0.084054
 C         3.403714         0.433693         0.485939
 O         4.483274         0.610795         1.299762
 C         3.723340        -0.597589        -0.604787
 C         2.309203        -1.008558        -0.364168
 O         1.893012        -2.274802        -0.881269
 C         2.128834        -0.516086         1.026282
 H        -0.437810         1.197694         0.602726
 H        -0.433580         0.849696        -1.099692
 H        -0.759372        -0.617241         0.014962
 H         2.679766         1.710290        -1.108089
 H         1.937068         2.097194         0.520531
 H         4.594282         1.527851         1.591759
 H         3.942582        -0.247143        -1.643047
 H         4.480601        -1.300128        -0.184124
 H         1.128421        -2.159745        -1.441343
 H         1.837743        -0.993736         1.938713
