19
Iteration:  2884charge 0 multiplicity 1
 C        -0.168249         0.192305        -0.318835
 C         1.395793         0.198548        -0.026182
 C         2.303650         1.353528         0.042766
 C         3.492132         0.380430         0.502695
 O         4.557573         0.771535         1.322055
 C         3.740842        -0.543035        -0.648026
 C         2.252772        -1.075036        -0.388401
 O         1.664329        -2.214572        -0.784896
 C         2.264925        -0.563595         1.032104
 H        -0.716547         0.695077         0.439823
 H        -0.399427         0.470060        -1.357390
 H        -0.502020        -0.879290        -0.182138
 H         2.504905         1.881733        -0.918974
 H         2.076734         2.074654         0.879357
 H         4.560818         1.729636         0.996184
 H         3.919382        -0.301425        -1.718383
 H         4.364661        -1.392131        -0.317256
 H         1.476347        -1.982404        -1.732441
 H         2.099370        -1.101370         2.092879
