19
Iteration:  1390
 C        -0.092532         0.041940        -0.148385
 C         1.432176         0.238083        -0.065229
 C         2.335202         1.425311        -0.061233
 C         3.431787         0.388819         0.482925
 O         4.467843         0.745130         1.298268
 C         3.705951        -0.645193        -0.553166
 C         2.293750        -1.072784        -0.357450
 O         1.644460        -2.140673        -0.879840
 C         2.223558        -0.431945         1.025701
 H        -0.657026         0.501993         0.745007
 H        -0.764513         0.573358        -0.999418
 H        -0.275414        -1.117239        -0.182157
 H         2.702374         2.112442        -0.849591
 H         2.048366         2.068928         0.812570
 H         5.166780         1.034276         0.594446
 H         4.102334        -0.315710        -1.562841
 H         4.447939        -1.411104        -0.222144
 H         1.997213        -2.184140        -1.770294
 H         1.783581        -0.835090         1.986887
