19
Iteration:  2879charge 0 multiplicity 1
 C        -0.145369         0.210545        -0.298242
 C         1.350496         0.174389        -0.006605
 C         2.324913         1.388560         0.045449
 C         3.452812         0.348042         0.489439
 O         4.552661         0.785102         1.348872
 C         3.723164        -0.554534        -0.690987
 C         2.296398        -1.056806        -0.439410
 O         1.670499        -2.233901        -0.743003
 C         2.263499        -0.576061         1.012958
 H        -0.946638         0.697800         0.381579
 H        -0.453235         0.508912        -1.354422
 H        -0.399453        -0.852154        -0.251862
 H         2.453347         1.986285        -0.915789
 H         2.204863         2.088896         0.855742
 H         4.788152         1.699205         1.186949
 H         4.043189        -0.239872        -1.726867
 H         4.403103        -1.358803        -0.332131
 H         1.404041        -2.165361        -1.677576
 H         2.056939        -0.971505         1.920578
