19
Iteration:   774
 C        -0.092184         0.128024        -0.002789
 C         1.419019         0.132759        -0.028985
 C         2.327167         1.359697         0.096334
 C         3.474849         0.360806         0.620677
 O         4.545018         1.059858         1.199758
 C         3.679439        -0.615434        -0.620278
 C         2.218766        -1.081658        -0.435929
 O         1.700905        -2.171615        -1.202595
 C         2.141991        -0.647007         1.088735
 H        -0.307282         0.782740         0.840140
 H        -0.481059         0.730694        -0.873438
 H        -0.734388        -0.806315         0.014475
 H         2.481051         2.005186        -0.747950
 H         2.068293         1.764514         1.148162
 H         5.409667         0.518005         1.179913
 H         3.859830        -0.095769        -1.574255
 H         4.271673        -1.489477        -0.478369
 H         2.271503        -2.965173        -0.996512
 H         1.507969        -0.862548         2.025084
