19
Iteration:  1443
 C        -0.071758         0.322455        -0.027930
 C         1.445383         0.176796        -0.007504
 C         2.425476         1.297798        -0.117309
 C         3.482238         0.304728         0.511548
 O         4.375088         0.937223         1.372767
 C         3.709593        -0.596326        -0.720370
 C         2.277803        -1.127978        -0.449009
 O         1.668628        -2.258670        -0.891003
 C         2.267833        -0.641698         1.026140
 H        -0.428187         1.146326         0.555251
 H        -0.437486         0.853769        -0.912448
 H        -0.627358        -0.565999         0.042105
 H         2.734050         1.472927        -1.230408
 H         2.122614         2.134046         0.517997
 H         3.832495         1.650357         1.823131
 H         3.937862        -0.150047        -1.679759
 H         4.427481        -1.385082        -0.467633
 H         1.580193        -2.244216        -1.843525
 H         2.035897        -1.176526         2.024522
