19
Iteration:  3127
 C        -0.139840         0.184738        -0.143044
 C         1.373193         0.240379        -0.181841
 C         2.390569         1.404271        -0.135311
 C         3.428690         0.375686         0.553362
 O         4.553976         0.710261         1.352760
 C         3.688924        -0.598813        -0.630846
 C         2.319790        -1.058959        -0.372342
 O         1.732031        -2.264811        -0.770505
 C         2.182043        -0.451863         0.936349
 H        -0.560652         1.132569         0.239349
 H        -0.683103         0.087546        -1.080599
 H        -0.385758        -0.602206         0.513982
 H         2.393814         1.917589        -1.098330
 H         2.071564         2.070117         0.596322
 H         4.281889         1.197427         2.094151
 H         4.012657        -0.328062        -1.628198
 H         4.378754        -1.403403        -0.344310
 H         1.455540        -2.174594        -1.698081
 H         1.860658        -0.747062         1.894815
