19
Iteration:  3518
 C        -0.069954         0.120819        -0.207931
 C         1.472122         0.150607        -0.035406
 C         2.364425         1.390160        -0.050434
 C         3.459437         0.380935         0.550995
 O         4.537888         0.829997         1.242542
 C         3.667233        -0.723132        -0.607158
 C         2.254664        -1.017252        -0.401593
 O         1.647975        -2.151069        -0.814327
 C         2.191868        -0.510420         1.017064
 H        -0.643592         0.893657         0.204599
 H        -0.222556         0.350132        -1.270913
 H        -0.506683        -0.821265         0.199474
 H         2.664143         1.861580        -1.030575
 H         2.184782         2.107399         0.646949
 H         4.235358         1.302368         1.988424
 H         3.923464        -0.213214        -1.529595
 H         4.428728        -1.450161        -0.290228
 H         1.324981        -1.988261        -1.706520
 H         1.877341        -0.979237         1.872147
