19
Iteration:  2302charge 0 multiplicity 1
 C        -0.112623         0.103797        -0.133713
 C         1.365678         0.181121        -0.030227
 C         2.372102         1.415263        -0.116048
 C         3.394669         0.422262         0.583433
 O         4.580532         0.868041         1.259033
 C         3.754682        -0.736337        -0.537759
 C         2.241498        -1.120101        -0.365020
 O         1.715267        -2.205152        -1.038309
 C         2.210017        -0.436568         1.083430
 H        -0.709229         0.891269         0.423976
 H        -0.347414         0.455235        -1.084362
 H        -0.323465        -0.956639        -0.001539
 H         2.442461         1.731526        -1.143252
 H         2.171531         2.288675         0.453521
 H         4.278831         1.111545         2.129985
 H         4.162610        -0.432183        -1.491106
 H         4.351067        -1.539676        -0.113154
 H         0.972520        -1.980526        -1.600235
 H         1.877719        -0.701107         2.199165
