19
Iteration:  4014
 C         0.047036         0.330277        -0.267172
 C         1.428548         0.135974         0.026884
 C         2.369485         1.285152        -0.118098
 C         3.388619         0.354263         0.538176
 O         4.450910         0.913260         1.299729
 C         3.713999        -0.600258        -0.524218
 C         2.263532        -1.088436        -0.362612
 O         1.623464        -2.337074        -0.912383
 C         2.239663        -0.594745         1.066750
 H        -0.311797         0.946996         0.603018
 H        -0.175952         0.967825        -1.155000
 H        -0.427414        -0.580606        -0.215520
 H         2.587311         1.657134        -1.132539
 H         2.050485         2.091410         0.461042
 H         4.427527         1.818328         1.158734
 H         4.082668        -0.365835        -1.581321
 H         4.453375        -1.343885        -0.102940
 H         0.974742        -1.778305        -1.366811
 H         2.051025        -1.082759         1.941668
