19
Iteration:  3177
 C        -0.123766         0.382032        -0.278997
 C         1.304984         0.167693        -0.053009
 C         2.298374         1.353613        -0.056710
 C         3.443446         0.381471         0.489799
 O         4.581824         0.742750         1.257651
 C         3.681878        -0.595651        -0.672809
 C         2.288004        -1.023662        -0.352140
 O         1.751852        -2.332222        -0.737566
 C         2.207794        -0.536210         1.088520
 H        -0.552940         1.118654         0.412965
 H        -0.278958         0.823555        -1.340434
 H        -0.713207        -0.629321        -0.252746
 H         2.604742         1.964731        -0.940315
 H         1.960812         2.079203         0.811407
 H         4.131584         1.246704         2.009002
 H         3.854451        -0.180743        -1.695763
 H         4.440215        -1.403287        -0.576951
 H         2.297257        -2.591571        -1.527181
 H         2.024628        -1.127013         1.927650
