19
Iteration:  2392charge 0 multiplicity 1
 C        -0.041682         0.328238        -0.237199
 C         1.425040         0.120660         0.011974
 C         2.289643         1.398358         0.004235
 C         3.387674         0.357937         0.518235
 O         4.465192         0.783701         1.334658
 C         3.661462        -0.517491        -0.719182
 C         2.255360        -1.068078        -0.389607
 O         1.776954        -2.314140        -0.753530
 C         2.235035        -0.642457         1.007114
 H        -0.482491         1.242059         0.137492
 H        -0.102720         0.525451        -1.262397
 H        -0.712606        -0.567500        -0.052434
 H         2.499229         1.712817        -1.032425
 H         2.024032         2.255836         0.633827
 H         4.916428         1.623936         1.043877
 H         3.810454        -0.059382        -1.665196
 H         4.476331        -1.283108        -0.510175
 H         1.490526        -2.163155        -1.658061
 H         1.969864        -1.110422         1.855752
