19
Iteration:  1775charge 0 multiplicity 1
 C        -0.085450         0.369067        -0.058034
 C         1.434333         0.260154        -0.093073
 C         2.401163         1.424669        -0.148702
 C         3.402730         0.429727         0.495232
 O         4.365421         0.704188         1.467843
 C         3.775989        -0.607137        -0.783736
 C         2.358062        -1.100377        -0.439334
 O         1.607715        -2.339690        -0.758099
 C         2.272195        -0.597787         0.877508
 H        -0.393232         0.948292         0.895165
 H        -0.473610         0.662917        -1.040360
 H        -0.452156        -0.730654         0.026966
 H         2.595578         1.948109        -1.069359
 H         2.050609         2.180207         0.628400
 H         4.322027         1.652012         1.845311
 H         3.967303        -0.156311        -1.749928
 H         4.438926        -1.209808        -0.179123
 H         1.893093        -2.716630        -1.637845
 H         2.081826        -1.130827         1.848963
