19
Iteration:   939charge 0 multiplicity 1
 C        -0.044609         0.162550        -0.005666
 C         1.394450         0.084827        -0.087993
 C         2.339990         1.341474         0.065300
 C         3.418694         0.420027         0.602856
 O         4.429586         1.071213         1.301977
 C         3.677886        -0.703093        -0.646402
 C         2.254826        -1.114014        -0.495474
 O         1.567693        -2.101628        -1.109959
 C         2.388484        -0.633954         1.042622
 H        -0.369039         0.727767         0.875398
 H        -0.493228         0.527857        -0.960970
 H        -0.408530        -0.841871         0.061388
 H         2.670136         1.955895        -0.724562
 H         2.048849         1.901532         1.001341
 H         5.208928         0.435565         1.380761
 H         3.992500        -0.254285        -1.605222
 H         4.298471        -1.525079        -0.237225
 H         2.126780        -2.745401        -1.518381
 H         2.113003        -0.945522         2.061623
