19
Iteration:   285charge 0 multiplicity 1
 C        -0.097103         0.133467        -0.048635
 C         1.450464         0.129230        -0.084251
 C         2.318691         1.466249        -0.024000
 C         3.456198         0.469004         0.482331
 O         4.453969         0.733442         1.456126
 C         3.662263        -0.534339        -0.767797
 C         2.279518        -1.058246        -0.466970
 O         1.566918        -2.186995        -0.890424
 C         2.363047        -0.572407         0.924274
 H        -0.479043         0.674129         0.832996
 H        -0.722220         0.397332        -0.914327
 H        -0.196683        -0.973133         0.157119
 H         2.548711         2.200948        -0.849305
 H         1.960336         1.958451         0.946044
 H         5.120976         1.289278         1.037813
 H         3.837960        -0.140137        -1.838513
 H         4.416590        -1.284538        -0.571570
 H         2.147422        -2.939706        -0.954359
 H         2.139070        -0.891377         2.041490
