19
Iteration:  3979
 C        -0.170726         0.197721        -0.265683
 C         1.380416         0.241588        -0.077591
 C         2.414149         1.286463        -0.044207
 C         3.513247         0.319660         0.566850
 O         4.574850         0.951731         1.203429
 C         3.747828        -0.728568        -0.507803
 C         2.218321        -1.108022        -0.328734
 O         1.620222        -2.217458        -0.905682
 C         2.178536        -0.461624         1.035228
 H        -0.596113         0.641584         0.634596
 H        -0.647687         0.603567        -1.172506
 H        -0.599472        -0.838787        -0.245167
 H         2.768640         1.788924        -0.897959
 H         2.270624         1.984875         0.785238
 H         4.241249         1.446448         1.902002
 H         4.225729        -0.312365        -1.480033
 H         4.312404        -1.498252         0.010873
 H         1.939847        -2.302109        -1.830140
 H         1.895992        -0.799155         2.107007
