19
Iteration:   331
 C        -0.210761         0.047436        -0.157114
 C         1.361823         0.153831         0.012441
 C         2.325743         1.401693        -0.007090
 C         3.462815         0.393960         0.539442
 O         4.619080         0.775288         1.241506
 C         3.672747        -0.581549        -0.620468
 C         2.196911        -1.000626        -0.287564
 O         1.655913        -2.043982        -1.021856
 C         2.286497        -0.614746         1.131668
 H        -0.658223         0.966162         0.218068
 H        -0.444600         0.191796        -1.181469
 H        -0.668846        -0.888826         0.189500
 H         2.526765         1.802937        -1.019779
 H         2.085997         2.129953         0.750939
 H         5.204532         1.344378         0.656104
 H         3.921069        -0.191021        -1.608321
 H         4.407047        -1.330767        -0.360556
 H         2.345662        -2.657498        -1.337428
 H         2.039536        -1.234232         1.967049
