19
Iteration:   729charge 0 multiplicity 1
 C        -0.076159         0.186551         0.048912
 C         1.387373         0.064938         0.066303
 C         2.304190         1.299686        -0.071201
 C         3.483384         0.340900         0.376132
 O         4.337896         0.865728         1.378812
 C         3.769013        -0.520063        -0.787630
 C         2.291292        -1.019769        -0.461050
 O         1.659489        -2.042566        -0.986994
 C         2.344195        -0.597118         0.986666
 H        -0.373247         0.997901         0.698120
 H        -0.343187         0.300949        -1.015337
 H        -0.625446        -0.770323         0.296156
 H         2.276288         1.872635        -1.001859
 H         2.119323         1.861459         0.872415
 H         4.615636         0.103594         1.997915
 H         4.014836         0.054576        -1.684689
 H         4.442036        -1.267641        -0.483691
 H         1.926285        -2.907906        -0.614445
 H         2.257027        -1.035702         1.876780
