19
Iteration:  3762charge 0 multiplicity 1
 C        -0.083344         0.400569        -0.328822
 C         1.399983         0.158792        -0.014757
 C         2.389447         1.372980        -0.018515
 C         3.417466         0.419510         0.424569
 O         4.466694         0.769315         1.248597
 C         3.687456        -0.582435        -0.682075
 C         2.316946        -1.134743        -0.303976
 O         1.750537        -2.323168        -0.737536
 C         2.175757        -0.592168         1.094939
 H        -0.482132         1.314067         0.212909
 H        -0.452880         0.298762        -1.383579
 H        -0.517147        -0.495631         0.055911
 H         2.762840         1.951836        -0.942010
 H         2.236267         2.061885         0.765995
 H         4.136886         1.315438         2.065781
 H         3.814042        -0.124914        -1.658105
 H         4.541258        -1.197762        -0.459583
 H         1.391515        -2.195219        -1.652756
 H         1.767379        -1.158865         1.886376
