19
Iteration:  1570
 C        -0.070764         0.296760        -0.142255
 C         1.401763         0.185027        -0.091152
 C         2.404852         1.284257        -0.042563
 C         3.422996         0.255091         0.547172
 O         4.474334         0.920363         1.252147
 C         3.805118        -0.642448        -0.608560
 C         2.294837        -1.047651        -0.429527
 O         1.599749        -2.131866        -0.867683
 C         2.190960        -0.637174         1.012742
 H        -0.543551         0.899257         0.653447
 H        -0.347638         0.534609        -1.199763
 H        -0.756004        -0.620473        -0.035002
 H         2.719391         1.833476        -0.892675
 H         1.882889         2.034715         0.605206
 H         4.000973         1.325287         2.078571
 H         4.070497        -0.095042        -1.561714
 H         4.450655        -1.486692        -0.275906
 H         2.171616        -2.763105        -1.349357
 H         2.081101        -1.172222         1.989964
