19
Iteration:   987
 C        -0.059137         0.087380        -0.221850
 C         1.395219         0.187506         0.030665
 C         2.321258         1.373858         0.027042
 C         3.445939         0.395520         0.545452
 O         4.483203         0.762389         1.344784
 C         3.559729        -0.427388        -0.768774
 C         2.235824        -0.978405        -0.386615
 O         1.682499        -2.169358        -0.964980
 C         2.362371        -0.603340         1.023800
 H        -0.612906         0.554131         0.664451
 H        -0.312806         0.479962        -1.221285
 H        -0.461637        -0.977911        -0.306612
 H         2.571418         1.946093        -0.988581
 H         1.991449         2.145110         0.840551
 H         5.247524         0.170681         1.371327
 H         3.787819         0.211476        -1.647292
 H         4.307954        -1.262281        -0.638664
 H         1.771944        -2.656385        -0.095485
 H         2.231767        -1.084919         2.062283
