19
Iteration:  4995charge 0 multiplicity 1
 C        -0.125086         0.310903        -0.071375
 C         1.407301         0.172759        -0.037734
 C         2.406171         1.312647        -0.055272
 C         3.381717         0.385067         0.528828
 O         4.403184         0.910722         1.329339
 C         3.665748        -0.528051        -0.649829
 C         2.282128        -1.110087        -0.466941
 O         1.844036        -2.309525        -0.935166
 C         2.223657        -0.582283         0.987251
 H        -0.401822         0.646269         0.958848
 H        -0.642824         0.982304        -0.809239
 H        -0.619922        -0.691979        -0.124171
 H         2.733419         1.601019        -1.067637
 H         2.011829         2.118646         0.540557
 H         4.647040         0.201060         1.959601
 H         4.131381        -0.145409        -1.557677
 H         4.297305        -1.185484        -0.094991
 H         1.373795        -2.200324        -1.766866
 H         1.931490        -1.045900         1.950435
