19
Iteration:  1304charge 0 multiplicity 1
 C        -0.092606         0.302908        -0.173821
 C         1.411440         0.145409         0.009615
 C         2.279279         1.421670         0.045360
 C         3.482167         0.371959         0.496055
 O         4.502910         1.030812         1.302379
 C         3.741469        -0.617283        -0.721328
 C         2.314988        -1.160653        -0.450714
 O         1.582678        -2.345604        -0.867869
 C         2.314451        -0.652681         0.984109
 H        -0.403222         1.187400         0.375904
 H        -0.435007         0.499501        -1.156685
 H        -0.479737        -0.683463         0.232563
 H         2.531185         1.901841        -0.861313
 H         2.015320         2.027663         0.952226
 H         4.324736         0.749086         2.242581
 H         4.001870        -0.046020        -1.631157
 H         4.405776        -1.429131        -0.393867
 H         1.241481        -2.342385        -1.778838
 H         2.327921        -1.134886         1.911161
