19
Iteration:  1142
 C        -0.130667         0.124189        -0.151527
 C         1.364357         0.262358        -0.036336
 C         2.379527         1.459880         0.018535
 C         3.406627         0.401033         0.556374
 O         4.542513         0.719037         1.274413
 C         3.676616        -0.495263        -0.638698
 C         2.258079        -1.040151        -0.445641
 O         1.789017        -2.340958        -0.845140
 C         2.161371        -0.502718         1.012267
 H        -0.773945         0.790913         0.456467
 H        -0.552774         0.214675        -1.183820
 H        -0.224599        -0.993405         0.146485
 H         2.702001         2.075709        -0.745549
 H         2.004127         2.032698         0.877228
 H         5.126166         1.177008         0.593902
 H         3.840721         0.090736        -1.567028
 H         4.336848        -1.289716        -0.305283
 H         1.301725        -2.280330        -1.665594
 H         1.861301        -0.956092         1.871083
