19
Iteration:   208charge 0 multiplicity 1
 C        -0.122868         0.226667        -0.019374
 C         1.395256         0.186864        -0.078411
 C         2.253774         1.349012         0.126670
 C         3.449163         0.366447         0.498480
 O         4.566918         0.804159         1.198238
 C         3.698315        -0.561341        -0.607919
 C         2.249704        -1.090383        -0.378743
 O         1.785204        -2.238785        -1.074331
 C         2.229571        -0.590332         0.998055
 H        -0.445892         0.600021         0.943834
 H        -0.491460         0.659217        -0.938025
 H        -0.583753        -0.788038        -0.074250
 H         2.410050         2.125061        -0.639186
 H         1.981617         1.786635         1.136234
 H         4.781578         1.712521         0.814736
 H         4.011739        -0.075795        -1.521014
 H         4.478172        -1.217369        -0.315953
 H         0.875352        -2.458281        -0.763347
 H         1.836350        -0.613098         2.015412
