19
Iteration:  1090charge 0 multiplicity 1
 C         0.012115         0.091191         0.012801
 C         1.489651         0.163449         0.077239
 C         2.406767         1.391436        -0.108661
 C         3.390253         0.368179         0.444259
 O         4.271382         0.894182         1.391119
 C         3.769434        -0.584888        -0.670802
 C         2.296240        -1.091665        -0.400382
 O         1.551312        -2.159747        -0.979737
 C         2.297579        -0.579582         1.004139
 H        -0.461224         0.705417         0.792227
 H        -0.406249         0.554334        -0.953938
 H        -0.347035        -0.961688         0.162452
 H         2.395376         1.610437        -1.333789
 H         2.269198         2.309126         0.402219
 H         5.245861         0.737570         1.116144
 H         4.154072        -0.102571        -1.621262
 H         4.548118        -1.294843        -0.314403
 H         1.629317        -2.094697        -1.930498
 H         2.163374        -0.880818         1.922974
