19
Iteration:  2182charge 0 multiplicity 1
 C        -0.036235         0.108785        -0.371923
 C         1.401053         0.213806         0.007812
 C         2.414486         1.387202        -0.101462
 C         3.385045         0.446460         0.568952
 O         4.571522         0.711456         1.383464
 C         3.577580        -0.613187        -0.591529
 C         2.228448        -1.040248        -0.373342
 O         1.603020        -2.190329        -0.907363
 C         2.258229        -0.481149         1.133671
 H        -0.625002         0.983476         0.073862
 H        -0.189620         0.220844        -1.430723
 H        -0.393466        -0.865518         0.023642
 H         2.477984         1.764086        -1.174163
 H         2.171940         2.228218         0.473272
 H         4.798674         1.665597         1.087809
 H         3.937362        -0.163234        -1.553279
 H         4.360179        -1.357981        -0.243995
 H         2.274442        -2.889277        -1.108722
 H         1.958124        -0.758517         2.096800
