19
Iteration:   444charge 0 multiplicity 1
 C        -0.123483         0.102890        -0.132791
 C         1.401080         0.154598         0.012247
 C         2.304827         1.391113        -0.079426
 C         3.461798         0.369207         0.480014
 O         4.520661         0.735626         1.319149
 C         3.606441        -0.553820        -0.690548
 C         2.263042        -1.066919        -0.318656
 O         1.738084        -2.126580        -1.000469
 C         2.232056        -0.406092         1.097995
 H        -0.602032         0.484180         0.811067
 H        -0.563202         0.856980        -0.818512
 H        -0.456628        -0.908322        -0.287349
 H         2.385939         1.837552        -1.088615
 H         2.026767         2.013044         0.793032
 H         5.322359         0.306680         0.980750
 H         3.735753        -0.037959        -1.643365
 H         4.537677        -1.231363        -0.670801
 H         2.208842        -2.898500        -0.713721
 H         1.825730        -0.624428         2.229064
