19
Iteration:  3490
 C        -0.219524         0.366196        -0.169094
 C         1.386176         0.135205        -0.050239
 C         2.388465         1.394789        -0.060139
 C         3.419532         0.440803         0.538669
 O         4.561020         0.760447         1.228949
 C         3.665186        -0.606631        -0.557649
 C         2.243123        -1.096328        -0.420018
 O         1.839304        -2.381137        -0.881945
 C         2.224559        -0.536032         0.979989
 H        -0.660041         1.141791         0.611499
 H        -0.474172         0.674777        -1.218922
 H        -0.806900        -0.544598         0.140669
 H         2.753896         1.789878        -0.983303
 H         2.143929         2.298641         0.712387
 H         4.400851         1.362584         1.908306
 H         4.185192        -0.103691        -1.407403
 H         4.340496        -1.292798        -0.018920
 H         0.985863        -2.338391        -1.334991
 H         1.760501        -0.818980         2.011446
