19
Iteration:  3310
 C        -0.137064         0.385171        -0.156836
 C         1.394756         0.154200        -0.124508
 C         2.418940         1.342024         0.001300
 C         3.440337         0.408487         0.497656
 O         4.528609         0.860600         1.370492
 C         3.671507        -0.602424        -0.786562
 C         2.288339        -1.103674        -0.386909
 O         1.715278        -2.416124        -0.773833
 C         2.218981        -0.541746         0.947679
 H        -0.465531         1.354504         0.137997
 H        -0.496887         0.308763        -1.244504
 H        -0.553034        -0.418976         0.487860
 H         2.533409         1.952744        -0.809887
 H         1.943938         1.992757         0.794774
 H         4.165699         1.308274         2.200037
 H         3.999878        -0.140169        -1.768719
 H         4.409232        -1.291051        -0.359755
 H         1.449425        -2.234661        -1.715235
 H         1.883103        -1.030515         1.949086
