19
Iteration:  1159
 C        -0.039975         0.258987        -0.244140
 C         1.439213         0.131949         0.022076
 C         2.236292         1.382648         0.083689
 C         3.327615         0.409681         0.506652
 O         4.499018         0.750055         1.268121
 C         3.601574        -0.502876        -0.719996
 C         2.248672        -1.067469        -0.357175
 O         1.848290        -2.282327        -0.811157
 C         2.274150        -0.614111         1.032864
 H        -0.365998         1.129255         0.347867
 H        -0.206909         0.630213        -1.272551
 H        -0.710234        -0.527368        -0.048880
 H         2.488690         1.935210        -0.955105
 H         2.020205         2.131833         0.904617
 H         5.096625         1.318957         0.734125
 H         3.706279        -0.137283        -1.763924
 H         4.434656        -1.231084        -0.557162
 H         1.235131        -2.204061        -1.546466
 H         2.010717        -1.097956         2.088636
