19
Iteration:  4268charge 0 multiplicity 1
 C        -0.028019         0.300667        -0.295380
 C         1.408522         0.142268         0.013249
 C         2.382264         1.281150        -0.021975
 C         3.471722         0.297526         0.583158
 O         4.415152         1.047024         1.260373
 C         3.597699        -0.728014        -0.643548
 C         2.227914        -1.100542        -0.362433
 O         1.766643        -2.219798        -0.941937
 C         2.200721        -0.523171         1.131725
 H        -0.313069         1.275343         0.176984
 H        -0.158293         0.443580        -1.379994
 H        -0.594730        -0.585737         0.111011
 H         2.612767         1.765435        -1.030679
 H         2.387161         2.046755         0.729412
 H         5.199284         0.393838         1.479216
 H         3.922344        -0.281963        -1.603749
 H         4.223838        -1.605487        -0.408196
 H         0.811082        -2.145209        -0.877773
 H         2.181194        -1.145774         1.970693
