19
Iteration:  4907charge 0 multiplicity 1
 C        -0.066722        -0.042413        -0.317737
 C         1.428280         0.159501        -0.007602
 C         2.300745         1.448601        -0.035048
 C         3.437299         0.416846         0.502988
 O         4.517088         0.660722         1.409614
 C         3.706630        -0.507943        -0.677012
 C         2.280886        -1.021349        -0.388307
 O         1.566739        -2.097852        -0.813212
 C         2.316792        -0.500608         1.046759
 H        -0.740361         0.671923         0.233418
 H        -0.247466         0.095218        -1.434713
 H        -0.324243        -1.043302        -0.081055
 H         2.524139         2.035570        -1.012466
 H         1.903770         2.114804         0.741523
 H         4.651855         1.675265         1.580516
 H         3.983191        -0.111463        -1.619195
 H         4.447249        -1.241510        -0.524812
 H         1.596128        -1.999142        -1.772266
 H         2.327357        -1.209638         1.989214
