19
Iteration:  4369charge 0 multiplicity 1
 C        -0.054735         0.231705        -0.236756
 C         1.416889         0.181313        -0.012086
 C         2.378291         1.377155        -0.104011
 C         3.413704         0.386392         0.475507
 O         4.423606         0.705284         1.377136
 C         3.725207        -0.522292        -0.718637
 C         2.237215        -1.050288        -0.442216
 O         1.717468        -2.265105        -0.657858
 C         2.222886        -0.561866         1.005404
 H        -0.411028         0.725738         0.658126
 H        -0.170728         0.957556        -1.061894
 H        -0.668598        -0.750520        -0.483357
 H         2.510238         1.752181        -1.170526
 H         2.191103         2.186033         0.610612
 H         4.607880         1.609684         1.320229
 H         3.851730         0.044578        -1.634710
 H         4.478129        -1.371167        -0.587102
 H         1.717034        -2.363225        -1.640670
 H         1.875196        -0.921901         2.007880
