19
Iteration:   476charge 0 multiplicity 1
 C        -0.060336         0.173774        -0.238369
 C         1.425538         0.136370         0.052188
 C         2.391404         1.381879         0.110740
 C         3.429097         0.347162         0.596014
 O         4.494160         1.020285         1.203784
 C         3.693147        -0.612200        -0.612594
 C         2.259722        -1.052549        -0.425264
 O         1.493523        -2.172243        -0.985719
 C         2.312667        -0.685566         1.043844
 H        -0.487283         0.750070         0.616717
 H        -0.346954         0.620948        -1.233304
 H        -0.499409        -0.800671        -0.212512
 H         2.461292         1.888890        -0.910472
 H         2.049741         2.125322         0.840690
 H         5.361202         0.832695         0.844090
 H         4.045561        -0.006182        -1.540102
 H         4.498369        -1.380430        -0.285006
 H         2.058899        -2.946310        -0.714388
 H         1.942359        -1.480188         1.903491
