19
Iteration:  3329charge 0 multiplicity 1
 C        -0.041185         0.324101        -0.200440
 C         1.378131         0.164819        -0.048663
 C         2.326990         1.431145         0.027681
 C         3.450055         0.359914         0.528507
 O         4.467255         0.814770         1.260246
 C         3.745987        -0.580683        -0.629028
 C         2.264642        -1.079888        -0.511928
 O         1.660196        -2.312036        -0.728764
 C         2.266927        -0.661361         0.944232
 H        -0.268364         1.364743         0.001013
 H        -0.275527         0.184561        -1.234436
 H        -0.607691        -0.269366         0.558939
 H         2.485008         2.169702        -0.924986
 H         2.021722         2.210945         0.856895
 H         4.111295         1.466596         1.877871
 H         3.909064        -0.131089        -1.644222
 H         4.464482        -1.385519        -0.412784
 H         1.699917        -2.635862        -1.664111
 H         2.036580        -1.096919         1.879519
