19
Iteration:  2744
 C         0.014411         0.122037        -0.289444
 C         1.459161         0.123021         0.056846
 C         2.370542         1.388409        -0.050428
 C         3.382353         0.393464         0.550728
 O         4.463991         0.970414         1.282778
 C         3.708827        -0.619445        -0.633919
 C         2.270166        -1.027523        -0.390865
 O         1.570871        -2.209839        -0.876272
 C         2.280343        -0.620182         1.059951
 H        -0.304621         1.017847         0.371100
 H        -0.228511         0.181795        -1.359190
 H        -0.412901        -0.807502         0.197720
 H         2.614303         1.851821        -1.002877
 H         1.918251         2.129883         0.735909
 H         4.931026         0.218278         1.545955
 H         3.915082        -0.196381        -1.648457
 H         4.376974        -1.397351        -0.225968
 H         1.121622        -1.796343        -1.663085
 H         1.991779        -1.054504         2.032405
