19
Iteration:  3549
 C        -0.026965         0.089007        -0.261056
 C         1.455595         0.172372         0.011216
 C         2.415274         1.425411        -0.043430
 C         3.456998         0.422801         0.520545
 O         4.559789         0.847007         1.309671
 C         3.744426        -0.618980        -0.584334
 C         2.238173        -1.139372        -0.400869
 O         1.379576        -2.210164        -0.859085
 C         2.289547        -0.492327         1.073902
 H        -0.752272         0.862195         0.106739
 H        -0.119749         0.031702        -1.417430
 H        -0.338401        -1.086820        -0.071204
 H         2.585666         1.866924        -1.083776
 H         2.197399         2.195096         0.669775
 H         4.153563         1.643305         1.845335
 H         3.927541        -0.001948        -1.477563
 H         4.649317        -1.225645        -0.547237
 H         1.756300        -2.256730        -1.781259
 H         2.339921        -1.097763         1.884287
