19
Iteration:  2231
 C        -0.027278         0.323044        -0.238043
 C         1.389044         0.185104        -0.129052
 C         2.348504         1.427342        -0.008576
 C         3.418675         0.388850         0.505893
 O         4.410557         0.844077         1.387389
 C         3.669594        -0.595818        -0.643623
 C         2.211387        -1.070230        -0.466989
 O         1.708235        -2.354786        -0.788715
 C         2.255948        -0.588333         0.983522
 H        -0.457514         0.980969         0.442546
 H        -0.134212         1.077088        -1.068522
 H        -0.513923        -0.611358        -0.447260
 H         2.730114         2.012073        -0.893556
 H         1.775065         2.167102         0.698419
 H         5.248194         0.616408         0.999399
 H         4.076264        -0.196332        -1.598722
 H         4.342048        -1.375980        -0.238494
 H         2.272117        -2.953746        -0.295694
 H         1.873313        -0.958605         1.906754
