19
Iteration:  1295charge 0 multiplicity 1
 C        -0.116983         0.181008        -0.121479
 C         1.395263         0.175645        -0.003656
 C         2.409519         1.330233        -0.015090
 C         3.424624         0.398691         0.509966
 O         4.496373         0.964653         1.278270
 C         3.734726        -0.602562        -0.688454
 C         2.292273        -1.116333        -0.409939
 O         1.609834        -2.264230        -0.888713
 C         2.261913        -0.595455         0.994511
 H        -0.412045         1.014456         0.528181
 H        -0.466637         0.466963        -1.072687
 H        -0.736196        -0.662751         0.265979
 H         2.557615         1.926449        -1.002962
 H         2.104293         2.177970         0.685156
 H         4.333160         0.780375         2.245105
 H         4.061635        -0.165057        -1.633280
 H         4.550062        -1.293693        -0.493598
 H         1.548334        -2.196523        -1.857353
 H         2.256836        -1.082218         2.029038
