19
Iteration:   917
 C        -0.056573         0.209457         0.051260
 C         1.366804         0.164766         0.118210
 C         2.356109         1.335395        -0.018654
 C         3.493135         0.348454         0.525938
 O         4.462537         0.991567         1.178730
 C         3.680284        -0.591606        -0.588994
 C         2.222848        -1.117171        -0.402444
 O         1.743279        -2.125916        -1.232608
 C         2.137164        -0.673417         1.113000
 H        -0.390992         0.869006         0.858235
 H        -0.411730         0.514460        -0.959834
 H        -0.513157        -0.766023         0.204354
 H         2.417509         1.716656        -1.008904
 H         2.066284         2.126286         0.776217
 H         4.971263         0.394949         1.707538
 H         3.703853        -0.167791        -1.621427
 H         4.504162        -1.295167        -0.361694
 H         2.490574        -2.790950        -1.338221
 H         1.780028        -1.121998         2.131301
