19
Iteration:   249
 C        -0.057970         0.306568         0.006712
 C         1.379642         0.147111         0.122066
 C         2.356937         1.299002        -0.080898
 C         3.391409         0.345100         0.483091
 O         4.385507         0.841797         1.350509
 C         3.702081        -0.485793        -0.693265
 C         2.158856        -1.045432        -0.501011
 O         1.758279        -2.204172        -1.023569
 C         2.396393        -0.704605         1.025816
 H        -0.563011         0.692418         0.953758
 H        -0.332364         0.901095        -0.963965
 H        -0.566680        -0.680737        -0.113133
 H         2.399124         1.697783        -1.141186
 H         2.181274         2.182435         0.669758
 H         4.925087         1.485085         0.901449
 H         3.942833         0.090418        -1.734138
 H         4.326995        -1.436754        -0.549668
 H         1.540287        -2.864576        -0.387671
 H         2.228642        -1.185461         1.900593
