19
Iteration:  4042charge 0 multiplicity 1
 C        -0.225505         0.328201        -0.314090
 C         1.375044         0.205107        -0.079721
 C         2.397370         1.355113        -0.067099
 C         3.515435         0.345017         0.452071
 O         4.441472         0.819513         1.468061
 C         3.675365        -0.714986        -0.705699
 C         2.276530        -1.046822        -0.335210
 O         1.808581        -2.310428        -0.812165
 C         2.288061        -0.497083         1.022454
 H        -0.450443         1.057193         0.446125
 H        -0.478741         0.669913        -1.324064
 H        -0.722523        -0.685102        -0.026335
 H         2.558231         1.971670        -0.995639
 H         2.064681         2.077008         0.791458
 H         4.894829         1.574845         1.130285
 H         3.790496        -0.426905        -1.736053
 H         4.359708        -1.502950        -0.464255
 H         0.851508        -2.112981        -0.754613
 H         1.826121        -1.042334         1.892215
