19
Iteration:    87charge 0 multiplicity 1
 C        -0.083068         0.207033        -0.011847
 C         1.367185         0.224683         0.102876
 C         2.291675         1.338081         0.009444
 C         3.430713         0.368133         0.511945
 O         4.533408         0.856121         1.256773
 C         3.634570        -0.555207        -0.721407
 C         2.223429        -1.055033        -0.389659
 O         1.827435        -2.179230        -1.083808
 C         2.213923        -0.636263         1.068312
 H        -0.661641         0.790166         0.739218
 H        -0.437247         0.631911        -0.998645
 H        -0.393123        -0.854764         0.070729
 H         2.409445         1.785263        -0.946797
 H         2.068301         2.244832         0.647691
 H         5.238247         0.925101         0.598478
 H         3.701839        -0.316019        -1.776893
 H         4.262364        -1.338687        -0.282798
 H         1.399380        -2.863997        -0.510676
 H         2.015367        -1.096615         1.971152
