19
Iteration:     5charge 0 multiplicity 1
 C        -0.081491         0.139492        -0.040084
 C         1.410624         0.139708         0.058400
 C         2.332637         1.356401         0.073714
 C         3.431406         0.388553         0.473958
 O         4.552677         0.814945         1.177534
 C         3.641297        -0.493928        -0.708195
 C         2.229828        -1.040249        -0.421543
 O         1.607518        -2.139964        -0.966682
 C         2.299878        -0.605611         0.983228
 H        -0.512418         0.631598         0.839645
 H        -0.432739         0.452468        -1.007386
 H        -0.372487        -0.921129         0.029048
 H         2.595901         1.768796        -0.931723
 H         2.099735         1.949819         0.933726
 H         4.343728         1.497751         1.861836
 H         4.039790        -0.077193        -1.641271
 H         4.395174        -1.225270        -0.476210
 H         2.188016        -2.934338        -0.825212
 H         2.229758        -1.120868         1.917222
