19
Iteration:  4963charge 0 multiplicity 1
 C        -0.141490         0.456320        -0.148940
 C         1.396953         0.096367        -0.032738
 C         2.253458         1.300392         0.078402
 C         3.415220         0.393856         0.523010
 O         4.464287         0.973166         1.358000
 C         3.735436        -0.604970        -0.648279
 C         2.270919        -1.114237        -0.470583
 O         1.897179        -2.367372        -0.921925
 C         2.159230        -0.659490         0.965870
 H        -0.454169         1.033298         0.747320
 H        -0.426038         1.100283        -1.014921
 H        -0.849708        -0.426577        -0.176824
 H         2.462746         1.908914        -0.876522
 H         1.930436         1.944891         0.905690
 H         5.355399         0.837178         0.863278
 H         4.144094        -0.318095        -1.579315
 H         4.252445        -1.355064        -0.138416
 H         1.284936        -2.293942        -1.684005
 H         1.758272        -1.118837         1.898363
