19
Iteration:  2844charge 0 multiplicity 1
 C        -0.065492         0.300777        -0.186465
 C         1.424002         0.200767        -0.132222
 C         2.365961         1.393739        -0.042677
 C         3.400393         0.407327         0.478818
 O         4.361739         0.718524         1.454856
 C         3.638109        -0.518620        -0.830441
 C         2.310939        -1.066689        -0.422378
 O         1.744007        -2.309441        -0.665165
 C         2.299495        -0.585663         0.943915
 H        -0.499278         0.683708         0.850528
 H        -0.416650         0.804379        -1.134101
 H        -0.332357        -0.753908        -0.283176
 H         2.514802         1.937723        -0.960271
 H         2.057910         2.001379         0.888147
 H         5.052897         1.314780         1.105348
 H         3.881697         0.123666        -1.728732
 H         4.383305        -1.215387        -0.480697
 H         1.413287        -2.544409        -1.532108
 H         2.081572        -1.056086         2.066503
