19
Iteration:  4084
 C        -0.094872         0.205896        -0.235472
 C         1.449851         0.203564        -0.156410
 C         2.364373         1.449507        -0.150571
 C         3.353596         0.509167         0.576779
 O         4.513627         0.661771         1.387282
 C         3.701990        -0.526225        -0.614526
 C         2.307450        -1.103213        -0.308707
 O         1.764938        -2.291233        -0.864648
 C         2.105988        -0.480416         1.008014
 H        -0.566480         1.069137         0.236391
 H        -0.518955         0.228614        -1.243044
 H        -0.498182        -0.735139         0.275735
 H         2.581413         1.951952        -1.148156
 H         2.161110         2.256522         0.606033
 H         5.259546         0.324558         0.907061
 H         3.886421        -0.235025        -1.646764
 H         4.503100        -1.263428        -0.387182
 H         0.991119        -2.555323        -0.360995
 H         1.799695        -0.643284         2.090835
