19
Iteration:  1866
 C        -0.014979         0.191345        -0.375416
 C         1.412862         0.209081         0.045391
 C         2.397924         1.382236        -0.004432
 C         3.414987         0.362937         0.571484
 O         4.606599         0.908852         1.120773
 C         3.659237        -0.696407        -0.550401
 C         2.211856        -1.073796        -0.249880
 O         1.712487        -2.136872        -1.027418
 C         2.131823        -0.594874         1.192046
 H        -0.651475         0.783358         0.215651
 H        -0.283745         0.363599        -1.465969
 H        -0.544420        -0.811251        -0.255759
 H         2.652589         1.901916        -0.892630
 H         2.126934         2.001241         0.893184
 H         4.645254         0.747028         2.029804
 H         3.748125        -0.354282        -1.560078
 H         4.325292        -1.482432        -0.206053
 H         0.759169        -2.141561        -0.756692
 H         1.875984        -1.288240         2.069101
