19
Iteration:   202
 C        -0.099394         0.186936        -0.031017
 C         1.411190         0.174761        -0.068531
 C         2.263038         1.365394         0.149596
 C         3.422397         0.359255         0.546897
 O         4.563951         0.779784         1.173415
 C         3.637595        -0.534290        -0.610413
 C         2.279916        -1.079118        -0.452087
 O         1.790948        -2.221123        -1.039927
 C         2.256430        -0.556010         0.995453
 H        -0.550141         0.635016         0.898258
 H        -0.503941         0.651542        -0.965859
 H        -0.512260        -0.829668        -0.025481
 H         2.508028         2.018854        -0.728550
 H         1.859354         1.971301         0.970336
 H         4.750388         1.684594         0.904932
 H         3.985429        -0.200089        -1.643934
 H         4.328744        -1.333534        -0.131012
 H         0.837262        -2.226226        -0.728683
 H         1.889277        -0.891763         2.061942
