19
Iteration:  4835
 C        -0.122900         0.453724        -0.072616
 C         1.386011         0.139215         0.065831
 C         2.285114         1.326493        -0.076054
 C         3.377082         0.416008         0.515416
 O         4.485089         0.913504         1.321028
 C         3.740529        -0.552799        -0.593727
 C         2.268209        -1.172739        -0.420721
 O         1.824400        -2.414997        -1.065095
 C         2.223694        -0.637188         1.028424
 H        -0.302706         1.298238         0.579658
 H        -0.187413         0.743201        -1.123951
 H        -0.891061        -0.419544        -0.052548
 H         2.382211         1.828563        -1.004808
 H         1.962050         1.987383         0.750837
 H         4.112343         1.257164         2.212678
 H         4.260719        -0.073690        -1.561072
 H         4.537762        -1.264782        -0.162732
 H         1.353611        -2.201554        -1.879684
 H         2.245521        -1.384868         1.903081
