19
Iteration:  2529
 C        -0.101430         0.271512        -0.229928
 C         1.353042         0.213800        -0.024644
 C         2.257000         1.436994         0.059995
 C         3.422533         0.438390         0.541992
 O         4.582999         0.807508         1.276155
 C         3.679735        -0.498727        -0.699934
 C         2.282442        -1.105524        -0.411986
 O         1.736382        -2.396919        -0.796756
 C         2.202824        -0.594441         0.957984
 H        -0.410860         1.248614         0.245254
 H        -0.493548         0.483357        -1.359264
 H        -0.622809        -0.525106         0.253649
 H         2.365046         2.142979        -0.785632
 H         1.872328         2.096497         0.788393
 H         4.681389         0.185529         2.042895
 H         4.015017         0.018697        -1.708468
 H         4.495794        -1.142949        -0.380897
 H         2.158094        -2.400427        -1.705871
 H         1.989491        -1.197124         1.739883
