19
Iteration:   519charge 0 multiplicity 1
 C        -0.068612         0.213559        -0.185978
 C         1.434479         0.145026         0.055414
 C         2.286081         1.390349         0.071516
 C         3.450410         0.389959         0.540278
 O         4.534285         0.991568         1.240281
 C         3.627010        -0.600113        -0.642391
 C         2.223036        -1.110359        -0.430146
 O         1.583387        -2.210605        -1.042505
 C         2.380180        -0.636552         1.053995
 H        -0.533721         1.135948         0.206203
 H        -0.293187         0.276623        -1.262698
 H        -0.549520        -0.655780         0.176994
 H         2.555914         1.919445        -0.885642
 H         2.061332         2.012976         0.903782
 H         4.724191         0.382556         1.994278
 H         3.697704        -0.145340        -1.708387
 H         4.546657        -1.200208        -0.547212
 H         1.884909        -3.070704        -0.629187
 H         2.340038        -1.213975         2.144217
