19
Iteration:  1826charge 0 multiplicity 1
 C        -0.117677         0.265388        -0.257694
 C         1.430528         0.185894        -0.024045
 C         2.378512         1.408988        -0.010205
 C         3.430802         0.390424         0.547379
 O         4.574718         0.872989         1.167490
 C         3.689957        -0.704985        -0.501509
 C         2.280374        -1.118590        -0.367841
 O         1.688560        -2.264473        -0.986043
 C         2.155412        -0.529922         1.099708
 H        -0.588867         0.494059         0.741043
 H        -0.300002         0.984087        -1.075312
 H        -0.497965        -0.689662        -0.502107
 H         2.524802         2.053595        -0.982504
 H         2.092151         2.229984         0.707959
 H         4.493808         0.700939         2.158409
 H         4.090218        -0.255464        -1.463092
 H         4.551457        -1.280147         0.035550
 H         0.805919        -2.201021        -1.348217
 H         1.960554        -1.112586         2.104505
