19
Iteration:  3854charge 0 multiplicity 1
 C        -0.117261         0.265435        -0.224090
 C         1.382206         0.118557        -0.048422
 C         2.342362         1.291603        -0.166792
 C         3.402262         0.406942         0.589515
 O         4.678492         0.937881         1.220917
 C         3.705286        -0.712365        -0.443894
 C         2.210161        -1.124199        -0.248802
 O         1.708913        -2.227082        -1.050630
 C         2.202445        -0.541458         1.124654
 H        -0.526979         1.017614         0.514452
 H        -0.453307         0.594499        -1.236582
 H        -0.603360        -0.761478        -0.291097
 H         2.584048         1.712400        -1.094464
 H         1.971033         2.110728         0.552519
 H         4.327759         1.520357         1.842008
 H         4.201907        -0.310358        -1.394130
 H         4.383515        -1.603624        -0.222462
 H         0.898782        -1.776566        -1.302440
 H         1.813608        -0.907385         2.037173
