19
Iteration:  4730charge 0 multiplicity 1
 C        -0.097325         0.063945        -0.278604
 C         1.400112         0.156306         0.042050
 C         2.336622         1.379813        -0.026426
 C         3.411341         0.345223         0.556716
 O         4.589460         0.761290         1.306340
 C         3.707047        -0.483442        -0.681494
 C         2.265249        -1.029240        -0.335329
 O         1.687134        -2.151773        -0.879228
 C         2.205344        -0.598639         1.064677
 H        -0.820629         0.646264         0.293715
 H        -0.162849         0.432040        -1.314413
 H        -0.406945        -0.974713        -0.147462
 H         2.731421         1.888841        -0.945848
 H         2.042496         2.157618         0.710946
 H         4.401373         1.717625         1.700313
 H         3.675602         0.005131        -1.747033
 H         4.494876        -1.299015        -0.637524
 H         1.344000        -1.860031        -1.732034
 H         1.853955        -1.052433         2.014388
