19
Iteration:  3618
 C        -0.086282         0.462485        -0.147930
 C         1.396088         0.192818        -0.094293
 C         2.264367         1.401888        -0.100027
 C         3.417999         0.411178         0.553733
 O         4.586447         0.795065         1.228961
 C         3.651558        -0.584081        -0.552641
 C         2.195293        -1.134280        -0.354065
 O         1.895290        -2.426899        -0.861654
 C         2.175211        -0.595855         0.976982
 H        -0.412227         1.125836         0.687083
 H        -0.482017         0.993166        -1.115069
 H        -0.594264        -0.559239        -0.086293
 H         2.579876         1.963299        -1.034738
 H         1.930410         2.089273         0.581956
 H         4.290912         1.232861         2.103976
 H         3.973168        -0.175277        -1.506552
 H         4.376862        -1.372518        -0.265080
 H         1.120216        -2.563194        -1.453129
 H         1.665927        -1.057205         1.945159
