19
Iteration:  1587
 C        -0.063016         0.328820        -0.117389
 C         1.391343         0.189536        -0.101161
 C         2.441104         1.350883        -0.030513
 C         3.418666         0.406768         0.597269
 O         4.475166         0.843576         1.240914
 C         3.666562        -0.654986        -0.589857
 C         2.203275        -1.097851        -0.433031
 O         1.757207        -2.300911        -0.921177
 C         2.160224        -0.565952         1.014218
 H        -0.227811         1.006335         0.758272
 H        -0.543095         0.690348        -1.029284
 H        -0.543245        -0.614071         0.143860
 H         2.653618         1.890126        -1.013895
 H         2.300220         2.117768         0.780142
 H         4.137938         1.479956         1.977304
 H         3.912040        -0.317851        -1.607817
 H         4.246940        -1.486630        -0.191255
 H         2.363021        -2.432276        -1.673899
 H         1.677509        -1.079878         1.780502
