19
Iteration:  4869
 C        -0.057048         0.098054        -0.160023
 C         1.408974         0.198837        -0.125865
 C         2.389604         1.412308        -0.030665
 C         3.425872         0.337039         0.581989
 O         4.539239         0.810721         1.295931
 C         3.667181        -0.577186        -0.639748
 C         2.294783        -1.009349        -0.392595
 O         1.755457        -2.189484        -0.900526
 C         2.112045        -0.530983         1.008549
 H        -0.656750         0.855831         0.322052
 H        -0.463535         0.044088        -1.178874
 H        -0.308054        -0.888412         0.372054
 H         2.607373         2.101430        -0.794607
 H         2.046585         2.011214         0.848141
 H         4.115436         0.924009         2.123923
 H         3.965665        -0.012997        -1.585946
 H         4.396192        -1.428924        -0.334351
 H         1.130581        -2.054209        -1.635409
 H         1.877282        -1.205827         1.752346
