19
Iteration:  2523
 C        -0.088390         0.346586        -0.225585
 C         1.375293         0.187361        -0.022684
 C         2.275755         1.425187         0.068743
 C         3.370252         0.478487         0.535805
 O         4.552549         0.829440         1.249346
 C         3.693483        -0.479774        -0.649387
 C         2.257979        -1.111016        -0.420736
 O         1.722819        -2.405682        -0.817875
 C         2.276665        -0.640994         0.918572
 H        -0.528190         1.138834         0.376953
 H        -0.309375         0.375364        -1.231410
 H        -0.544608        -0.612863         0.189489
 H         2.358396         2.027682        -0.876987
 H         2.042180         2.112055         0.980619
 H         4.405618         0.236635         1.946170
 H         4.034538        -0.102644        -1.556188
 H         4.407735        -1.280778        -0.313526
 H         2.119040        -2.533098        -1.688589
 H         1.989971        -1.182470         1.930165
