19
Iteration:  3396
 C        -0.033064         0.089303        -0.255060
 C         1.500649         0.255833        -0.060726
 C         2.390316         1.400914        -0.030648
 C         3.374109         0.373445         0.587544
 O         4.526105         0.797494         1.140471
 C         3.721208        -0.686803        -0.501151
 C         2.264361        -1.061826        -0.326581
 O         1.643759        -2.175659        -0.960317
 C         2.193294        -0.497403         1.117442
 H        -0.614587         0.629770         0.430956
 H        -0.382676         0.312893        -1.280401
 H        -0.387595        -0.954865        -0.014733
 H         2.498917         1.769083        -1.163993
 H         1.998172         2.249462         0.701916
 H         4.307648         1.301338         1.989259
 H         3.966954        -0.210311        -1.501253
 H         4.440631        -1.477088        -0.265265
 H         0.820097        -1.769073        -1.256492
 H         2.025390        -0.856031         2.220224
