19
Iteration:  1286charge 0 multiplicity 1
 C        -0.123801         0.143539        -0.051797
 C         1.408588         0.139172        -0.016217
 C         2.414302         1.326588        -0.109114
 C         3.430883         0.377886         0.525510
 O         4.480581         0.879207         1.239666
 C         3.725602        -0.577688        -0.647513
 C         2.252389        -1.042512        -0.391298
 O         1.668004        -2.180331        -0.891961
 C         2.259381        -0.542414         1.018199
 H        -0.564446         0.876543         0.647954
 H        -0.420595         0.302557        -1.118625
 H        -0.552036        -0.852784         0.170592
 H         2.740235         1.718332        -1.197747
 H         2.210765         2.099623         0.681121
 H         4.286694         0.783028         2.218552
 H         3.806290        -0.186433        -1.659408
 H         4.442367        -1.318465        -0.278133
 H         1.787772        -2.007318        -1.837841
 H         1.792388        -1.060198         1.993707
