19
Iteration:    53charge 0 multiplicity 1
 C        -0.122212         0.185214        -0.054795
 C         1.400485         0.129949        -0.032375
 C         2.299126         1.307830         0.016050
 C         3.419991         0.420318         0.474344
 O         4.549406         0.792101         1.328239
 C         3.645999        -0.474459        -0.799310
 C         2.303777        -1.069392        -0.347791
 O         1.678807        -2.253560        -0.930408
 C         2.331773        -0.569377         1.029540
 H        -0.490995         0.469103         0.953397
 H        -0.511099         0.841825        -0.909662
 H        -0.513855        -0.831967        -0.279501
 H         2.435183         1.834282        -0.909775
 H         1.918655         1.819241         0.982772
 H         4.842724         1.677843         1.168690
 H         3.892016        -0.233412        -1.875553
 H         4.531328        -1.113521        -0.528054
 H         0.884561        -1.857032        -1.301996
 H         2.330387        -0.963713         2.025945
