19
Iteration:  4003
 C         0.067941         0.286337        -0.218435
 C         1.505412         0.135779        -0.014253
 C         2.359039         1.339490        -0.112946
 C         3.437235         0.423821         0.563308
 O         4.464628         0.937883         1.230217
 C         3.670135        -0.707053        -0.510430
 C         2.259609        -1.151678        -0.346482
 O         1.617558        -2.223243        -0.909977
 C         2.168285        -0.633945         1.103203
 H        -0.428047         0.808186         0.637673
 H        -0.185173         0.825182        -1.166871
 H        -0.474493        -0.591273        -0.310316
 H         2.663718         1.579815        -1.139933
 H         2.086582         2.151721         0.482709
 H         4.315971         1.917399         1.368014
 H         4.105785        -0.191065        -1.430656
 H         4.379942        -1.425849        -0.016045
 H         1.169469        -2.105142        -1.762872
 H         1.754316        -1.293558         1.771536
