19
Iteration:  4642
 C        -0.031329         0.213195        -0.100586
 C         1.393796         0.219602        -0.067117
 C         2.351801         1.423130        -0.126668
 C         3.431138         0.414077         0.518982
 O         4.487125         0.700660         1.386881
 C         3.619960        -0.489496        -0.648303
 C         2.216274        -1.067009        -0.427220
 O         1.771844        -2.340085        -0.914837
 C         2.259202        -0.524161         1.021611
 H        -0.354610         0.963556         0.604561
 H        -0.558169         0.306776        -1.057741
 H        -0.329470        -0.773010         0.381918
 H         2.768760         1.795876        -1.081482
 H         2.105585         2.144383         0.601255
 H         4.083812         1.428712         2.019496
 H         3.720421        -0.091082        -1.773694
 H         4.448469        -1.265640        -0.370190
 H         1.655182        -2.358983        -1.872973
 H         1.744676        -0.772356         2.067028
