19
Iteration:  1053
 C        -0.107049         0.342532        -0.089066
 C         1.354005         0.072743         0.002233
 C         2.279609         1.289441         0.089671
 C         3.472380         0.322266         0.544245
 O         4.484055         1.047151         1.283323
 C         3.678661        -0.567674        -0.679408
 C         2.241842        -1.078904        -0.523774
 O         1.837351        -2.288097        -0.968808
 C         2.240192        -0.622842         1.023619
 H        -0.297284         1.073259         0.777247
 H        -0.370145         0.852391        -1.036400
 H        -0.826608        -0.555925         0.022249
 H         2.532893         1.817058        -0.807522
 H         1.925569         1.919686         0.959326
 H         5.303467         0.505788         1.364630
 H         3.957375        -0.177427        -1.675086
 H         4.069890        -1.574642        -0.444835
 H         1.003998        -2.304336        -1.430988
 H         1.962058        -1.357724         1.944718
