19
Iteration:  4754charge 0 multiplicity 1
 C        -0.093416        -0.044334        -0.305738
 C         1.429882         0.202155         0.001890
 C         2.303061         1.478490         0.009715
 C         3.436394         0.438097         0.458398
 O         4.506239         0.628153         1.341215
 C         3.715639        -0.524880        -0.641885
 C         2.248881        -0.990444        -0.368484
 O         1.633171        -2.150100        -0.853545
 C         2.306928        -0.479726         1.085238
 H        -0.719386         0.093451         0.598435
 H        -0.538232         0.594732        -1.092145
 H        -0.178878        -1.072008        -0.484298
 H         2.530337         1.983874        -0.976013
 H         1.957773         2.164466         0.744513
 H         4.669518         1.553756         1.541702
 H         4.125717        -0.095016        -1.712776
 H         4.324942        -1.354144        -0.282409
 H         1.485662        -2.011379        -1.811370
 H         2.255648        -1.033735         1.929003
