19
Iteration:  3315charge 0 multiplicity 1
 C        -0.112931         0.375946        -0.186584
 C         1.453254         0.197290        -0.079754
 C         2.337340         1.357563         0.023157
 C         3.390411         0.385460         0.496238
 O         4.535657         0.863995         1.363910
 C         3.690348        -0.612210        -0.775228
 C         2.276615        -1.111331        -0.422382
 O         1.696762        -2.403397        -0.756902
 C         2.258832        -0.573445         0.933130
 H        -0.429311         1.443424         0.149684
 H        -0.596529         0.235507        -1.147461
 H        -0.597854        -0.359949         0.443432
 H         2.647137         1.972024        -0.980939
 H         2.008444         1.911187         0.876973
 H         4.136418         1.353236         2.111457
 H         4.063519        -0.093375        -1.621524
 H         4.441265        -1.332319        -0.413187
 H         1.535359        -2.355040        -1.701813
 H         1.865794        -0.957620         1.829392
