19
Iteration:  4511charge 0 multiplicity 1
 C        -0.207128         0.225507        -0.100372
 C         1.363096         0.194175        -0.109402
 C         2.419063         1.375955        -0.035516
 C         3.427616         0.322334         0.567173
 O         4.512761         0.753422         1.309418
 C         3.772996        -0.572590        -0.662411
 C         2.301029        -1.042863        -0.504736
 O         1.789807        -2.270293        -0.775750
 C         2.118310        -0.477116         0.957138
 H        -0.439882         1.054729         0.519157
 H        -0.625039         0.344867        -1.112357
 H        -0.546784        -0.780403         0.329741
 H         2.587576         1.985466        -1.005800
 H         2.092378         2.095881         0.720359
 H         4.205132         1.549855         1.704712
 H         3.968794         0.016532        -1.504362
 H         4.562427        -1.283599        -0.314234
 H         1.445259        -2.348145        -1.690062
 H         1.889208        -1.248796         1.593811
