19
Iteration:  2998
 C        -0.082058         0.267513        -0.184107
 C         1.385268         0.166811        -0.154390
 C         2.393423         1.419940        -0.092923
 C         3.406267         0.373201         0.501502
 O         4.473692         0.702752         1.377562
 C         3.636887        -0.508639        -0.818481
 C         2.263804        -1.053542        -0.384082
 O         1.764121        -2.314113        -0.688856
 C         2.286663        -0.492222         1.016638
 H        -0.466938         0.777388         0.751781
 H        -0.428727         0.621924        -1.107506
 H        -0.552385        -0.682755        -0.110152
 H         2.653589         2.008370        -0.942506
 H         2.254507         2.149839         0.818941
 H         4.017220         0.873887         2.289143
 H         3.629615         0.091714        -1.703811
 H         4.220491        -1.421098        -0.734447
 H         1.886443        -2.574148        -1.617334
 H         1.817881        -0.718413         1.849357
