19
Iteration:  1535
 C         0.007823         0.103055        -0.286304
 C         1.442622         0.155734         0.040634
 C         2.347906         1.416975        -0.037889
 C         3.479199         0.412327         0.570052
 O         4.561891         0.806334         1.331644
 C         3.663090        -0.587671        -0.659903
 C         2.198667        -1.079571        -0.364675
 O         1.525783        -2.120914        -0.993615
 C         2.312533        -0.583508         1.061637
 H        -0.611912         0.800007         0.192690
 H        -0.048327         0.476487        -1.313776
 H        -0.229033        -0.975586        -0.244692
 H         2.457747         1.862496        -1.000861
 H         1.904959         2.128642         0.745439
 H         4.131082         1.537839         1.908728
 H         3.824667        -0.386571        -1.748162
 H         4.424075        -1.363756        -0.439567
 H         1.282196        -2.766610        -0.287258
 H         2.353960        -0.896657         2.011482
