19
Iteration:  4671charge 0 multiplicity 1
 C        -0.152247         0.414574        -0.105436
 C         1.305439         0.153689        -0.000395
 C         2.317899         1.289184        -0.030319
 C         3.408857         0.347488         0.487874
 O         4.491295         0.895318         1.281282
 C         3.759571        -0.581698        -0.618042
 C         2.326783        -1.098850        -0.458004
 O         1.834515        -2.279026        -0.895089
 C         2.185645        -0.646594         0.978943
 H        -0.343021         1.406169         0.346241
 H        -0.744316         0.387688        -1.038877
 H        -0.812384        -0.315217         0.467278
 H         2.678113         1.765909        -0.962945
 H         2.104652         2.134440         0.781213
 H         4.266934         0.887601         2.197094
 H         3.963079        -0.329554        -1.611348
 H         4.463245        -1.308498        -0.196967
 H         1.675900        -2.239045        -1.864719
 H         2.030762        -1.357940         1.763918
