19
Iteration:  4550
 C        -0.027486         0.393755        -0.265249
 C         1.387956         0.111854         0.053023
 C         2.259116         1.321501         0.041282
 C         3.375864         0.377400         0.515832
 O         4.523459         0.857957         1.168360
 C         3.645163        -0.628978        -0.616865
 C         2.312351        -1.136311        -0.341613
 O         1.807004        -2.333060        -0.911390
 C         2.197167        -0.549601         1.124747
 H        -0.568014         0.939682         0.560108
 H        -0.049987         1.084921        -1.123396
 H        -0.769127        -0.323663        -0.602635
 H         2.523900         1.884895        -0.825462
 H         1.968863         1.877384         0.978151
 H         4.233315         1.542414         1.822420
 H         3.641442        -0.077208        -1.647339
 H         4.461911        -1.362856        -0.443549
 H         1.731783        -2.089690        -1.860284
 H         2.056667        -1.134525         2.017186
