19
Iteration:   716charge 0 multiplicity 1
 C        -0.052585         0.129135        -0.037714
 C         1.438370         0.187387         0.060305
 C         2.300705         1.337891        -0.012691
 C         3.453283         0.483100         0.447598
 O         4.381734         0.798755         1.440174
 C         3.709695        -0.501759        -0.848342
 C         2.297260        -1.043598        -0.416500
 O         1.592500        -2.176526        -1.003230
 C         2.392706        -0.555396         1.002770
 H        -0.536728         0.879110         0.650431
 H        -0.439621         0.339454        -1.067642
 H        -0.415016        -0.843397         0.340360
 H         2.422324         1.807968        -1.031676
 H         2.031869         2.157494         0.600757
 H         4.574298        -0.060516         1.758826
 H         3.756014        -0.087330        -1.906636
 H         4.494110        -1.253055        -0.830676
 H         2.104255        -2.940266        -0.700355
 H         2.254830        -0.956393         1.967288
