19
Iteration:  1518
 C        -0.027994         0.073862        -0.328565
 C         1.388780         0.244051         0.035533
 C         2.408260         1.397311         0.062129
 C         3.399041         0.376504         0.522926
 O         4.549036         0.711691         1.214818
 C         3.630329        -0.606326        -0.713962
 C         2.286186        -1.056546        -0.312261
 O         1.716174        -2.122083        -0.948520
 C         2.197902        -0.502056         1.122582
 H        -0.731619         0.701329         0.372467
 H        -0.292569         0.310294        -1.399253
 H        -0.455994        -0.957575        -0.179392
 H         2.707688         1.945520        -0.897200
 H         2.232504         2.111064         0.835569
 H         4.331275         1.540937         1.765237
 H         3.751326         0.053230        -1.572181
 H         4.398524        -1.366368        -0.506290
 H         1.032473        -2.495439        -0.329578
 H         1.715550        -0.971840         2.100762
