19
Iteration:  1217
 C        -0.005318         0.191411        -0.142434
 C         1.440616         0.181352        -0.056979
 C         2.310249         1.340763         0.053298
 C         3.426472         0.378653         0.521676
 O         4.447009         0.881072         1.330615
 C         3.690536        -0.604701        -0.729393
 C         2.301789        -1.068375        -0.462313
 O         1.668650        -2.215752        -0.778216
 C         2.243845        -0.618177         0.990364
 H        -0.474802         0.695265         0.704823
 H        -0.293950         0.664297        -1.020178
 H        -0.477503        -0.826970        -0.200934
 H         2.609263         1.923606        -0.954946
 H         2.032615         2.035408         0.961382
 H         4.682675         1.691061         0.850531
 H         3.843562        -0.107625        -1.693186
 H         4.389658        -1.373952        -0.404830
 H         1.307044        -2.227133        -1.703944
 H         1.946808        -1.304692         1.661990
