19
Iteration:  3645
 C        -0.126128         0.344924        -0.126366
 C         1.395428         0.111548        -0.040720
 C         2.386883         1.301098        -0.138015
 C         3.433518         0.362628         0.497706
 O         4.425509         0.789298         1.293728
 C         3.785070        -0.607257        -0.669156
 C         2.231431        -1.091984        -0.395352
 O         1.790291        -2.235906        -0.845521
 C         2.209945        -0.489455         1.023659
 H        -0.386535         0.830733         0.806690
 H        -0.415319         0.878437        -0.958128
 H        -0.676212        -0.535332        -0.310669
 H         2.858314         1.659651        -1.014111
 H         2.206922         2.224288         0.571000
 H         3.920799         1.379823         1.977901
 H         4.210959        -0.254649        -1.649937
 H         4.497698        -1.383807        -0.373923
 H         0.840190        -2.484085        -0.846325
 H         2.015747        -0.925070         1.919787
