19
Iteration:  2383charge 0 multiplicity 1
 C        -0.082838         0.352301        -0.301983
 C         1.355684         0.164761        -0.006460
 C         2.322147         1.388433         0.044264
 C         3.398091         0.374814         0.524921
 O         4.434685         0.767266         1.348491
 C         3.675670        -0.599995        -0.775184
 C         2.301357        -1.086112        -0.383022
 O         1.751362        -2.251612        -0.733722
 C         2.353452        -0.647919         1.039218
 H        -0.393287         1.170525         0.268051
 H        -0.261702         0.322995        -1.414393
 H        -0.783700        -0.385987         0.131298
 H         2.374125         1.846966        -0.933209
 H         1.766823         2.030711         0.568739
 H         4.673068         1.714457         1.143914
 H         3.722115        -0.098737        -1.786951
 H         4.597225        -1.238593        -0.619138
 H         1.698981        -2.417498        -1.670327
 H         2.062822        -1.131938         1.909566
