19
Iteration:   414
 C        -0.141286         0.147897        -0.017529
 C         1.401283         0.220014        -0.000249
 C         2.338057         1.428163        -0.082874
 C         3.472924         0.481687         0.510137
 O         4.468476         0.713190         1.391085
 C         3.661973        -0.500767        -0.676319
 C         2.234033        -1.042637        -0.573284
 O         1.698931        -2.231446        -0.860617
 C         2.253519        -0.533717         0.884983
 H        -0.475419         0.346208         0.997686
 H        -0.609470         0.667079        -0.890894
 H        -0.551038        -0.899466        -0.166303
 H         2.530397         1.946872        -1.009011
 H         2.035151         2.319509         0.580104
 H         5.245480         0.343805         0.941817
 H         4.116563        -0.143762        -1.582985
 H         4.385173        -1.152261        -0.161735
 H         2.236147        -2.958675        -0.444744
 H         2.067426        -1.149084         1.826282
