19
Iteration:   653charge 0 multiplicity 1
 C        -0.131511         0.151926        -0.216466
 C         1.375413         0.077807         0.117452
 C         2.276592         1.412177         0.145376
 C         3.428441         0.493348         0.490853
 O         4.539016         0.931431         1.155650
 C         3.685647        -0.633111        -0.554830
 C         2.268391        -1.025927        -0.384083
 O         1.665726        -2.138176        -1.071147
 C         2.288009        -0.673268         1.051661
 H        -0.648135         0.770156         0.451751
 H        -0.154782         0.841889        -1.027590
 H        -0.673762        -0.801962        -0.360453
 H         2.488443         2.071924        -0.677663
 H         1.975221         1.895179         1.125230
 H         5.158121         0.275682         0.903598
 H         4.038444        -0.351583        -1.548509
 H         4.288850        -1.430622        -0.169435
 H         2.025787        -2.956299        -0.647191
 H         2.241400        -1.200016         1.909070
