19
Iteration:  2935charge 0 multiplicity 1
 C        -0.156415         0.183870        -0.161463
 C         1.413310         0.153503        -0.015120
 C         2.412020         1.363519        -0.080194
 C         3.434424         0.376805         0.584740
 O         4.549482         0.980628         1.202798
 C         3.725408        -0.730326        -0.532442
 C         2.233309        -1.112875        -0.387081
 O         1.684913        -2.191987        -0.995500
 C         2.198674        -0.559037         1.096937
 H        -0.575274         0.999615         0.469429
 H        -0.442527         0.251479        -1.243620
 H        -0.564799        -0.770704         0.228912
 H         2.703905         1.849680        -1.052163
 H         2.360917         2.061904         0.696769
 H         4.317174         1.193784         2.177512
 H         4.094177        -0.343265        -1.511170
 H         4.314210        -1.610174        -0.199774
 H         1.200799        -1.739128        -1.702563
 H         2.029186        -1.186366         1.869195
