19
Iteration:  4020charge 0 multiplicity 1
 C        -0.042825         0.358002        -0.251849
 C         1.379430         0.133096        -0.002651
 C         2.417139         1.288381        -0.110728
 C         3.368234         0.367701         0.540312
 O         4.459262         0.893435         1.341992
 C         3.769194        -0.618269        -0.573661
 C         2.286145        -1.119723        -0.384674
 O         1.641901        -2.321366        -0.896485
 C         2.272463        -0.578007         1.068457
 H        -0.384755         1.007757         0.541747
 H        -0.056043         0.855941        -1.230818
 H        -0.617366        -0.659032        -0.323676
 H         2.534250         1.708239        -1.124877
 H         1.986154         2.129270         0.560770
 H         4.449631         1.870952         1.081779
 H         4.026397        -0.298096        -1.574094
 H         4.397337        -1.416101        -0.232105
 H         0.805166        -2.007492        -1.296953
 H         2.159061        -0.902483         2.173148
