19
Iteration:   133charge 0 multiplicity 1
 C         0.030860         0.153692        -0.041014
 C         1.467784         0.159811         0.006772
 C         2.282201         1.393260         0.076537
 C         3.419810         0.441660         0.483054
 O         4.526289         0.893659         1.219184
 C         3.655359        -0.528542        -0.701814
 C         2.272283        -1.077521        -0.422087
 O         1.544309        -2.196417        -0.938814
 C         2.291616        -0.641594         0.964336
 H        -0.442116         0.999441         0.486404
 H        -0.353579         0.125190        -1.043784
 H        -0.266130        -0.785536         0.492375
 H         2.305201         2.008217        -0.798928
 H         1.991701         2.031425         0.868085
 H         4.496787         0.342690         2.000658
 H         3.824157         0.020033        -1.622370
 H         4.407980        -1.271348        -0.410617
 H         2.138433        -2.596081        -1.575727
 H         2.038500        -1.401172         1.839919
