19
Iteration:  4103charge 0 multiplicity 1
 C        -0.110885         0.170802        -0.282056
 C         1.368447         0.179299        -0.109457
 C         2.375863         1.350368        -0.109504
 C         3.450210         0.356377         0.541913
 O         4.518672         0.820108         1.378525
 C         3.659664        -0.660361        -0.570181
 C         2.243191        -1.023440        -0.336407
 O         1.747161        -2.185371        -0.946117
 C         2.254808        -0.392028         1.090878
 H        -0.621931         1.090224         0.101536
 H        -0.568271         0.293473        -1.273943
 H        -0.663765        -0.597159         0.161690
 H         2.560137         1.896307        -1.048180
 H         1.917437         2.065907         0.508800
 H         5.290439         0.314978         1.354497
 H         3.832070        -0.272813        -1.631695
 H         4.308844        -1.608416        -0.366277
 H         1.260836        -2.785220        -0.358376
 H         1.854482        -0.888524         2.049995
