19
Iteration:  1969
 C        -0.177626         0.330980        -0.187097
 C         1.387990         0.140679        -0.079723
 C         2.403867         1.327867        -0.122260
 C         3.402590         0.348367         0.555526
 O         4.597218         0.839072         1.264618
 C         3.666816        -0.742669        -0.522874
 C         2.226401        -1.086837        -0.302851
 O         1.874289        -2.185958        -1.050455
 C         2.135379        -0.532779         1.109729
 H        -0.593436         1.252011         0.344217
 H        -0.589979         0.355435        -1.189219
 H        -0.729975        -0.356287         0.361983
 H         2.608798         1.866999        -1.061255
 H         2.058488         2.149525         0.558358
 H         4.360739         1.534427         1.969475
 H         4.085643        -0.323067        -1.489460
 H         4.265779        -1.663588        -0.326532
 H         0.919352        -2.405533        -0.897364
 H         1.854263        -0.864365         2.007861
