19
Iteration:  4584charge 0 multiplicity 1
 C        -0.062531         0.172876        -0.328302
 C         1.406184         0.137595         0.054056
 C         2.329346         1.351434         0.031604
 C         3.444352         0.430127         0.612105
 O         4.598209         0.919358         1.223472
 C         3.693509        -0.630236        -0.583420
 C         2.232872        -1.025120        -0.426332
 O         1.586904        -2.253335        -0.858802
 C         2.260354        -0.619554         1.045978
 H        -0.652984         0.425124         0.566832
 H        -0.160007         1.021466        -0.997991
 H        -0.336553        -0.798702        -0.805579
 H         2.591291         1.892326        -0.856010
 H         2.136435         2.202085         0.737863
 H         4.394606         1.499241         1.915586
 H         3.944229        -0.221434        -1.658279
 H         4.355132        -1.536257        -0.390930
 H         1.348840        -2.179259        -1.814084
 H         2.082389        -1.339469         1.724959
