19
Iteration:  2671charge 0 multiplicity 1
 C        -0.167835         0.296257        -0.134290
 C         1.430715         0.178333        -0.123616
 C         2.345741         1.410715         0.016403
 C         3.353808         0.419349         0.474590
 O         4.486447         0.721071         1.228661
 C         3.738090        -0.572986        -0.658126
 C         2.339412        -1.037277        -0.396631
 O         1.798454        -2.322973        -0.760738
 C         2.145531        -0.578281         0.992640
 H        -0.582792         0.919158         0.611118
 H        -0.393248         0.852295        -1.071483
 H        -0.578560        -0.657648        -0.207474
 H         2.531208         1.915393        -1.005272
 H         2.090822         2.193168         0.689770
 H         4.255921         1.075497         2.140640
 H         3.955856        -0.009390        -1.576994
 H         4.543673        -1.198764        -0.313736
 H         1.811224        -2.492468        -1.754677
 H         1.898843        -0.942011         2.068462
