19
Iteration:  1705
 C        -0.044380         0.223928        -0.320294
 C         1.411242         0.158765         0.089542
 C         2.348027         1.308614        -0.033828
 C         3.397513         0.368485         0.534333
 O         4.540985         0.889825         1.219473
 C         3.718349        -0.583482        -0.537175
 C         2.217206        -1.070597        -0.354339
 O         1.675177        -2.162767        -0.971195
 C         2.217068        -0.566922         1.137811
 H        -0.602320         1.000578         0.260965
 H        -0.058567         0.212720        -1.421435
 H        -0.420441        -0.736372        -0.037802
 H         2.526894         1.744400        -1.045760
 H         2.104634         2.021975         0.685898
 H         4.961113         0.085408         1.593153
 H         4.053084        -0.175430        -1.484784
 H         4.265645        -1.386162        -0.054974
 H         0.862293        -1.907638        -1.491414
 H         1.983650        -1.121393         1.950994
