19
Iteration:  4854
 C        -0.138760         0.265343        -0.146845
 C         1.378496         0.145844        -0.103113
 C         2.324051         1.312837         0.025146
 C         3.383394         0.393159         0.566885
 O         4.461811         0.851058         1.270545
 C         3.736677        -0.611863        -0.633284
 C         2.265104        -1.061522        -0.445087
 O         1.847624        -2.211352        -0.944852
 C         2.252215        -0.616326         1.051701
 H        -0.253114         1.169687         0.466580
 H        -0.578646         0.437738        -1.129639
 H        -0.667002        -0.533619         0.333327
 H         2.672661         1.731747        -0.983308
 H         1.951078         2.010463         0.746510
 H         4.401137         0.996398         2.295669
 H         4.026378        -0.272194        -1.699054
 H         4.379629        -1.397867        -0.301564
 H         1.273264        -1.956765        -1.676306
 H         1.750859        -0.926070         2.064719
