19
Iteration:  4206charge 0 multiplicity 1
 C        -0.108914         0.220811        -0.258305
 C         1.398197         0.291947        -0.102536
 C         2.441529         1.392700        -0.083931
 C         3.364889         0.380783         0.476489
 O         4.457756         0.760715         1.354519
 C         3.623013        -0.604258        -0.636079
 C         2.259765        -1.042429        -0.370752
 O         1.762886        -2.240194        -0.798769
 C         2.207756        -0.456060         1.009621
 H        -0.735547         0.453682         0.557307
 H        -0.551223         0.656930        -1.128982
 H        -0.410420        -0.847243        -0.476441
 H         2.768397         1.678787        -1.065121
 H         2.482419         2.180695         0.684123
 H         5.233262         0.077391         1.269409
 H         3.922883        -0.196225        -1.624422
 H         4.249353        -1.425150        -0.167300
 H         1.959857        -2.865714        -0.088686
 H         1.624773        -0.804143         1.852471
