19
Iteration:  1644charge 0 multiplicity 1
 C        -0.028143         0.276429        -0.214266
 C         1.391137         0.148353        -0.045047
 C         2.384423         1.384904        -0.091475
 C         3.375302         0.326787         0.550365
 O         4.497828         0.738585         1.347804
 C         3.665083        -0.573392        -0.673722
 C         2.261324        -0.999457        -0.442477
 O         1.765034        -2.244885        -0.827795
 C         2.228664        -0.564808         1.013014
 H        -0.520931         0.890953         0.547210
 H        -0.387306         0.609084        -1.191010
 H        -0.545486        -0.691888        -0.005235
 H         2.619321         1.928409        -1.039924
 H         2.126143         2.207628         0.696378
 H         4.293408         1.539958         1.809093
 H         4.137075        -0.174196        -1.583039
 H         4.337443        -1.404157        -0.433468
 H         0.798362        -2.229533        -1.034549
 H         1.924554        -1.140860         1.876779
