19
Iteration:  2489
 C        -0.082063         0.260014        -0.138754
 C         1.391836         0.156855        -0.061452
 C         2.354125         1.263224        -0.045112
 C         3.459549         0.365031         0.497443
 O         4.472097         1.024623         1.316830
 C         3.733532        -0.663779        -0.691496
 C         2.290529        -1.084791        -0.337912
 O         1.702779        -2.212788        -0.897994
 C         2.196170        -0.603492         1.040317
 H        -0.590384         0.765853         0.723878
 H        -0.440988         0.833594        -0.916956
 H        -0.460314        -0.806826        -0.278373
 H         2.521489         1.713019        -1.044877
 H         2.212547         2.108297         0.781265
 H         4.471195         0.623236         2.189771
 H         3.854631        -0.200793        -1.618750
 H         4.298042        -1.621770        -0.602737
 H         1.584103        -1.996708        -1.821183
 H         1.943778        -1.288989         1.850446
