19
Iteration:  2491
 C        -0.074738         0.268227        -0.143625
 C         1.391066         0.143175        -0.050694
 C         2.352091         1.273256        -0.028435
 C         3.441515         0.354250         0.522795
 O         4.464663         1.018460         1.295936
 C         3.740282        -0.664053        -0.707331
 C         2.280807        -1.072362        -0.338071
 O         1.709501        -2.221528        -0.887605
 C         2.201996        -0.580830         1.018770
 H        -0.501502         0.761850         0.756377
 H        -0.402737         0.832646        -1.031740
 H        -0.525759        -0.787540        -0.239374
 H         2.496819         1.753047        -1.073425
 H         2.217445         2.048754         0.835020
 H         4.414254         0.575731         2.227622
 H         3.899713        -0.206252        -1.643887
 H         4.299462        -1.633311        -0.609659
 H         1.673245        -1.990831        -1.837299
 H         1.961489        -1.329454         1.921968
