19
Iteration:   391charge 0 multiplicity 1
 C        -0.099745         0.230377        -0.025908
 C         1.408114         0.169696        -0.131733
 C         2.387591         1.350618         0.033667
 C         3.481845         0.323983         0.526873
 O         4.432956         0.951079         1.422842
 C         3.749941        -0.565193        -0.837572
 C         2.222700        -1.068253        -0.461524
 O         1.626366        -2.242444        -0.933595
 C         2.226745        -0.613995         0.966784
 H        -0.430829         0.689585         0.903884
 H        -0.513269         0.569160        -1.000099
 H        -0.539500        -0.782212         0.027349
 H         2.633164         2.117404        -0.685034
 H         2.039920         1.937642         0.926657
 H         5.213398         0.888760         0.864159
 H         3.941777        -0.017597        -1.709876
 H         4.521663        -1.330197        -0.702558
 H         1.869557        -2.834497        -0.226683
 H         2.093105        -1.069792         2.040224
