19
Iteration:  1872charge 0 multiplicity 1
 C        -0.030321         0.206038        -0.361474
 C         1.388887         0.207693         0.081834
 C         2.428104         1.360219        -0.008158
 C         3.420687         0.394318         0.573675
 O         4.558037         0.893256         1.134886
 C         3.660386        -0.653501        -0.580050
 C         2.284529        -1.058121        -0.250578
 O         1.679651        -2.182971        -1.015985
 C         2.129832        -0.613137         1.151138
 H        -0.783693         0.891318         0.206284
 H        -0.042387         0.245770        -1.436093
 H        -0.463931        -0.775888        -0.091328
 H         2.830723         1.977719        -0.901853
 H         2.307920         2.172484         0.741781
 H         4.504331         0.717196         2.133994
 H         3.868208        -0.269853        -1.631162
 H         4.269074        -1.540374        -0.301977
 H         0.724856        -2.248504        -0.753590
 H         1.915676        -1.221774         1.965986
