19
Iteration:  2424charge 0 multiplicity 1
 C        -0.181617         0.169207        -0.177429
 C         1.395272         0.197973        -0.118843
 C         2.330484         1.439386        -0.018070
 C         3.470790         0.402182         0.532782
 O         4.495451         0.856131         1.353785
 C         3.695926        -0.669383        -0.611176
 C         2.262754        -1.083292        -0.369554
 O         1.775198        -2.277500        -0.904085
 C         2.220704        -0.515093         1.040976
 H        -0.694602         0.675796         0.683489
 H        -0.377607         0.670719        -1.063643
 H        -0.608924        -0.897175        -0.375969
 H         2.751950         1.868526        -0.965030
 H         2.174505         2.260366         0.795614
 H         5.191884         0.953477         0.726571
 H         3.999378        -0.339727        -1.555251
 H         4.338059        -1.525156        -0.234098
 H         0.963952        -2.006800        -1.399369
 H         1.915116        -0.783616         1.973757
