19
Iteration:  2683charge 0 multiplicity 1
 C        -0.029743         0.278938        -0.223014
 C         1.359329         0.230193        -0.020214
 C         2.291257         1.423299        -0.042334
 C         3.388711         0.401299         0.527324
 O         4.507847         0.729519         1.235859
 C         3.719014        -0.484265        -0.673533
 C         2.276002        -1.107530        -0.436489
 O         1.801034        -2.328372        -0.697881
 C         2.168021        -0.551090         0.942765
 H        -0.348627         0.824867         0.642676
 H        -0.456803         0.738786        -1.153181
 H        -0.548376        -0.643568        -0.036875
 H         2.578659         2.156803        -0.901945
 H         1.964723         1.928247         0.854917
 H         4.318988         0.608793         2.131490
 H         3.947525        -0.078959        -1.683705
 H         4.470392        -1.279481        -0.464163
 H         1.760706        -2.462696        -1.652887
 H         1.618487        -1.076523         1.881494
