19
Iteration:  1850
 C        -0.067415         0.181550        -0.368364
 C         1.393949         0.117904        -0.045590
 C         2.289261         1.307421         0.103494
 C         3.460003         0.382303         0.614813
 O         4.675911         0.906591         1.094361
 C         3.620214        -0.724665        -0.464432
 C         2.222865        -1.061316        -0.306553
 O         1.697806        -2.133984        -1.031700
 C         2.201454        -0.506614         1.120565
 H        -0.635284         0.725807         0.507890
 H        -0.043562         0.688320        -1.316850
 H        -0.543056        -0.814707        -0.434658
 H         2.535204         1.968962        -0.810833
 H         2.013490         2.100072         0.773743
 H         4.732555         0.706968         2.004804
 H         4.060898        -0.360714        -1.429045
 H         4.206304        -1.592302        -0.021721
 H         0.752992        -2.244820        -1.135503
 H         1.819685        -0.467952         2.120371
