19
Iteration:  4112
 C        -0.134142         0.192609        -0.287976
 C         1.429916         0.185901        -0.023312
 C         2.407674         1.355605        -0.110394
 C         3.478678         0.398890         0.569279
 O         4.469787         0.897864         1.334816
 C         3.667102        -0.684010        -0.584614
 C         2.191086        -1.022639        -0.365882
 O         1.720581        -2.191352        -0.977239
 C         2.218692        -0.504886         1.091988
 H        -0.527983         1.120867         0.229506
 H        -0.232517         0.150430        -1.425818
 H        -0.605672        -0.680116         0.116347
 H         2.540580         1.793569        -1.108278
 H         2.332652         2.069722         0.712383
 H         5.127477         0.250788         1.406780
 H         4.059294        -0.392021        -1.606272
 H         4.170060        -1.649109        -0.269381
 H         1.409143        -2.775746        -0.260057
 H         1.884108        -0.809390         2.129181
