19
Iteration:  4276
 C        -0.057085         0.305891        -0.282099
 C         1.351536         0.128748         0.064676
 C         2.443944         1.237296        -0.023089
 C         3.500631         0.350169         0.566087
 O         4.487901         1.080830         1.269310
 C         3.683850        -0.771950        -0.645893
 C         2.165271        -1.062577        -0.324125
 O         1.746484        -2.239606        -0.994142
 C         2.186018        -0.503568         1.129091
 H        -0.575921         1.190234         0.170068
 H        -0.244039         0.270885        -1.373166
 H        -0.679938        -0.450983         0.050124
 H         2.535842         1.595207        -1.077261
 H         2.139539         2.087622         0.668310
 H         5.070570         0.363480         1.756007
 H         3.812681        -0.327045        -1.601328
 H         4.397352        -1.469701        -0.384507
 H         0.808089        -2.305546        -1.213046
 H         2.013631        -1.183885         1.907009
