19
Iteration:  2134
 C        -0.052326         0.235053        -0.184889
 C         1.447070         0.134283        -0.071085
 C         2.397127         1.287962        -0.086482
 C         3.468571         0.394164         0.546162
 O         4.456364         0.921077         1.333064
 C         3.837666        -0.684544        -0.514847
 C         2.299559        -1.103235        -0.390334
 O         1.499361        -2.144291        -1.028091
 C         2.231420        -0.581210         0.997845
 H        -0.552114         1.278174         0.234321
 H        -0.384014         0.169810        -1.275165
 H        -0.532513        -0.573410         0.380573
 H         2.707766         1.880695        -0.932242
 H         1.987465         2.060659         0.649616
 H         3.976193         1.753747         1.501352
 H         4.346278        -0.402863        -1.475516
 H         4.445677        -1.467150        -0.099730
 H         1.407177        -2.809571        -0.353474
 H         2.069895        -1.078695         2.042904
