19
Iteration:   713charge 0 multiplicity 1
 C        -0.060325         0.122970        -0.050931
 C         1.435236         0.195121         0.053075
 C         2.311207         1.391391        -0.011175
 C         3.433999         0.479106         0.474234
 O         4.400144         0.795679         1.443326
 C         3.677883        -0.496815        -0.860723
 C         2.317119        -1.045485        -0.416797
 O         1.576898        -2.205029        -1.007176
 C         2.406361        -0.554671         0.997563
 H        -0.486125         0.850301         0.721890
 H        -0.433044         0.220808        -1.104452
 H        -0.422718        -0.851318         0.255233
 H         2.489988         1.827354        -1.030063
 H         2.021837         2.245332         0.569617
 H         4.662294        -0.085637         1.799692
 H         3.678940        -0.060420        -1.898132
 H         4.516408        -1.289126        -0.777258
 H         2.156897        -2.964730        -0.710231
 H         2.231201        -1.001922         2.088294
