19
Iteration:  1682
 C        -0.062015         0.147585        -0.361526
 C         1.489392         0.142553        -0.009956
 C         2.379231         1.399065         0.043127
 C         3.413486         0.344006         0.574136
 O         4.522916         0.967623         1.278502
 C         3.708590        -0.679545        -0.698325
 C         2.299043        -1.145418        -0.355687
 O         1.568639        -2.137669        -0.927983
 C         2.274950        -0.598322         1.090283
 H        -0.351082         0.915195         0.323868
 H        -0.108431         0.444835        -1.413872
 H        -0.671451        -0.729679        -0.202883
 H         2.528298         2.047587        -0.832753
 H         2.126551         1.923800         0.949099
 H         4.461938         0.738811         2.199009
 H         3.823994        -0.331790        -1.703904
 H         4.316641        -1.478686        -0.275098
 H         0.690578        -1.770256        -0.978926
 H         2.004988        -0.927844         2.055751
