19
Iteration:  1463charge 0 multiplicity 1
 C        -0.101360         0.410239        -0.107153
 C         1.352147         0.156633        -0.028320
 C         2.326770         1.306956        -0.035457
 C         3.376285         0.452580         0.490267
 O         4.468758         0.809729         1.230048
 C         3.737855        -0.622181        -0.642078
 C         2.284618        -1.134131        -0.378314
 O         1.838108        -2.318350        -0.894989
 C         2.211613        -0.623148         1.016540
 H        -0.322815         1.324435         0.454130
 H        -0.365918         0.835776        -1.040783
 H        -0.701778        -0.405528         0.120292
 H         2.422236         1.926933        -0.986626
 H         2.154669         1.908234         0.847601
 H         4.224260         1.201255         2.140146
 H         3.978247        -0.127863        -1.572728
 H         4.533568        -1.347755        -0.471508
 H         1.136704        -2.071889        -1.506539
 H         2.095748        -1.053318         1.983310
