19
Iteration:   968
 C        -0.056392         0.080369        -0.119085
 C         1.373869         0.142322         0.069056
 C         2.347870         1.389478         0.055446
 C         3.441672         0.422563         0.508991
 O         4.410217         0.883839         1.376032
 C         3.801947        -0.501335        -0.764005
 C         2.319922        -1.058928        -0.492386
 O         1.517411        -2.089043        -0.898359
 C         2.264218        -0.644734         0.940740
 H        -0.617859         0.476165         0.708650
 H        -0.258428         0.426272        -1.128879
 H        -0.413207        -1.004604        -0.173978
 H         2.623814         1.987755        -0.938775
 H         2.300795         2.231584         0.725680
 H         5.253696         0.377685         1.159576
 H         4.202498        -0.013190        -1.710421
 H         4.607721        -1.249477        -0.611929
 H         1.831230        -3.014146        -0.744258
 H         2.007921        -1.447273         1.808815
