19
Iteration:  1492charge 0 multiplicity 1
 C        -0.137211         0.220492        -0.254721
 C         1.336996         0.227154        -0.042295
 C         2.309537         1.462568         0.077583
 C         3.367936         0.465551         0.651028
 O         4.695544         0.701137         1.155699
 C         3.624343        -0.620568        -0.618010
 C         2.204496        -1.039316        -0.439149
 O         1.893091        -2.331898        -0.905887
 C         2.164900        -0.520956         1.047285
 H        -0.668717         1.064039         0.313908
 H        -0.427339         0.530501        -1.346753
 H        -0.697284        -0.797104        -0.034437
 H         2.580903         1.980528        -0.789418
 H         1.944500         2.127622         0.916690
 H         4.783845         1.238755         1.956822
 H         3.918622        -0.059384        -1.566622
 H         4.298962        -1.463837        -0.375965
 H         0.893849        -2.429777        -0.888821
 H         1.831531        -1.017202         1.869134
