19
Iteration:  4587
 C        -0.044177         0.154022        -0.311444
 C         1.381062         0.136185         0.045450
 C         2.346258         1.365793         0.028395
 C         3.447285         0.448097         0.614705
 O         4.603262         0.901437         1.235748
 C         3.691012        -0.621014        -0.571784
 C         2.223195        -1.023613        -0.434612
 O         1.576839        -2.249714        -0.853783
 C         2.252386        -0.597988         1.001745
 H        -0.646145         0.337743         0.553936
 H        -0.096715         0.988460        -0.990054
 H        -0.282524        -0.858584        -0.749576
 H         2.540328         1.914627        -0.921435
 H         2.105425         2.105669         0.737964
 H         4.454370         1.604174         1.977742
 H         4.005720        -0.279437        -1.636270
 H         4.317253        -1.548268        -0.386266
 H         1.318416        -2.188141        -1.782560
 H         2.150999        -1.412741         1.740388
