19
Iteration:  2017
 C        -0.031689         0.181434        -0.396758
 C         1.450210         0.190040        -0.048437
 C         2.378510         1.303378         0.002494
 C         3.487526         0.312525         0.535397
 O         4.571366         0.947838         1.319187
 C         3.701472        -0.659090        -0.583751
 C         2.211195        -1.077005        -0.331203
 O         1.571166        -2.190938        -0.854233
 C         2.276178        -0.599079         1.058744
 H        -0.687109         0.520066         0.373520
 H        -0.252228         0.901042        -1.171389
 H        -0.526209        -0.785238        -0.632675
 H         2.693772         1.928997        -0.959783
 H         2.087565         2.066067         0.729957
 H         4.167593         1.658753         1.758617
 H         3.900205        -0.366853        -1.662795
 H         4.422832        -1.438238        -0.361938
 H         0.747266        -1.858347        -1.252489
 H         1.808007        -1.138468         2.025761
