19
Iteration:  2519
 C        -0.086009         0.362910        -0.198692
 C         1.394793         0.171702        -0.020436
 C         2.288987         1.426835         0.076894
 C         3.352200         0.477546         0.510868
 O         4.522648         0.845633         1.234340
 C         3.692870        -0.494077        -0.615453
 C         2.252472        -1.106905        -0.453462
 O         1.724369        -2.389482        -0.826892
 C         2.301110        -0.658739         0.954768
 H        -0.590654         1.119349         0.426759
 H        -0.257712         0.351739        -1.317506
 H        -0.532420        -0.588273         0.078357
 H         2.431052         1.908762        -0.841123
 H         2.096933         2.009434         0.944966
 H         4.353052         0.249689         2.049438
 H         4.041845        -0.091679        -1.637905
 H         4.346015        -1.292840        -0.269423
 H         2.059036        -2.655439        -1.726644
 H         2.056540        -1.029670         1.838186
