19
Iteration:   650charge 0 multiplicity 1
 C        -0.113193         0.171521        -0.222168
 C         1.385752         0.091181         0.136367
 C         2.271850         1.364014         0.151544
 C         3.436256         0.526830         0.489593
 O         4.524613         0.951523         1.168678
 C         3.667229        -0.619395        -0.552438
 C         2.248115        -1.055338        -0.395764
 O         1.653573        -2.154133        -1.097900
 C         2.316305        -0.681994         1.062958
 H        -0.693835         0.777578         0.529833
 H        -0.148797         0.861299        -1.072815
 H        -0.642385        -0.727382        -0.368268
 H         2.481944         2.039106        -0.752418
 H         2.064432         1.961147         0.989375
 H         5.243407         0.289259         0.881124
 H         4.091792        -0.424725        -1.581052
 H         4.335853        -1.329149        -0.119587
 H         1.937970        -2.993913        -0.648211
 H         2.236546        -1.331413         2.078841
