19
Iteration:  4190
 C        -0.063090         0.212798        -0.276934
 C         1.403489         0.320648         0.040051
 C         2.474133         1.448275        -0.135498
 C         3.394083         0.384800         0.505828
 O         4.391950         0.809047         1.282414
 C         3.743738        -0.638543        -0.606116
 C         2.236411        -1.113687        -0.346844
 O         1.690238        -2.265313        -0.844838
 C         2.080220        -0.494027         1.057431
 H        -0.606972         0.535071         0.680397
 H        -0.217468         0.905041        -1.155753
 H        -0.295425        -0.815506        -0.530028
 H         2.760983         1.817875        -1.159840
 H         2.152554         2.269573         0.517411
 H         5.034354         0.086637         1.421769
 H         3.989351        -0.251637        -1.624522
 H         4.577807        -1.362794        -0.370189
 H         2.277457        -2.993748        -0.624671
 H         2.082809        -0.896538         2.109719
