19
Iteration:    33charge 0 multiplicity 1
 C        -0.138682         0.102518        -0.054760
 C         1.418274         0.156081         0.052448
 C         2.312556         1.469183         0.080585
 C         3.501319         0.362337         0.483475
 O         4.525473         0.849220         1.319275
 C         3.718322        -0.601248        -0.801380
 C         2.279346        -1.014402        -0.515746
 O         1.599622        -2.203270        -0.799297
 C         2.324126        -0.636531         0.937970
 H        -0.582660         0.482354         0.880808
 H        -0.423206         0.771783        -0.907834
 H        -0.535811        -0.903184        -0.266888
 H         2.453886         2.014784        -0.835866
 H         2.053895         2.053421         1.030908
 H         4.489357         1.828201         1.361535
 H         3.814836        -0.040244        -1.782361
 H         4.498143        -1.419986        -0.799670
 H         1.572579        -2.493963        -1.770034
 H         1.990292        -1.257470         1.704994
