19
Iteration:   221
 C        -0.143121         0.258687        -0.024068
 C         1.364991         0.100638        -0.023904
 C         2.356674         1.411369         0.096534
 C         3.411726         0.423174         0.489846
 O         4.548797         0.895840         1.286422
 C         3.736865        -0.645675        -0.727434
 C         2.232473        -1.162291        -0.414579
 O         1.792211        -2.248656        -1.117483
 C         2.213177        -0.578310         1.081379
 H        -0.433487         0.799287         0.867558
 H        -0.527139         0.989321        -0.663428
 H        -0.679396        -0.708141        -0.058951
 H         2.373466         2.229297        -0.595123
 H         2.097419         1.897184         1.018764
 H         4.928642         1.653369         0.886857
 H         3.753401        -0.239015        -1.654655
 H         4.441256        -1.399007        -0.565996
 H         1.100404        -2.780807        -0.682188
 H         1.738846        -1.063772         2.117483
