19
Iteration:   460
 C        -0.077528         0.146784        -0.157454
 C         1.402948         0.153189        -0.003572
 C         2.356712         1.352991         0.003142
 C         3.430544         0.455971         0.565505
 O         4.627341         0.926831         1.340173
 C         3.597969        -0.555749        -0.690096
 C         2.199471        -1.120614        -0.356914
 O         1.604511        -2.200526        -1.043388
 C         2.246313        -0.576403         1.097091
 H        -0.647237         0.463271         0.711551
 H        -0.217034         0.616319        -1.127599
 H        -0.459285        -0.886355        -0.428448
 H         2.699148         1.959820        -0.846549
 H         1.997267         2.162441         0.677965
 H         5.374714         0.593128         0.869021
 H         3.626550        -0.161926        -1.722506
 H         4.258127        -1.335796        -0.450178
 H         2.038481        -3.036367        -0.836010
 H         2.050272        -0.831580         2.032901
