19
Iteration:   595
 C        -0.058394         0.174019        -0.020050
 C         1.422610         0.236966        -0.031710
 C         2.334498         1.391459        -0.015466
 C         3.451197         0.371475         0.526377
 O         4.425915         0.953731         1.323426
 C         3.727377        -0.584545        -0.713228
 C         2.247854        -1.096773        -0.477110
 O         1.598942        -2.213415        -0.965986
 C         2.304210        -0.618002         0.944187
 H        -0.465626         0.589899         0.912091
 H        -0.487415         0.618775        -0.900722
 H        -0.378429        -0.818600        -0.136458
 H         2.542670         2.039502        -0.897008
 H         2.058169         2.047456         0.746506
 H         4.883039         0.250006         1.872788
 H         4.093012        -0.126094        -1.648738
 H         4.359939        -1.380622        -0.513246
 H         2.019386        -2.998190        -0.610914
 H         2.129759        -1.121210         2.008969
