19
Iteration:  1312charge 0 multiplicity 1
 C        -0.033184         0.388726        -0.198643
 C         1.442020         0.119201         0.006688
 C         2.231346         1.392633         0.104543
 C         3.476374         0.391769         0.493451
 O         4.485155         1.043743         1.293185
 C         3.737744        -0.603358        -0.722667
 C         2.261854        -1.136946        -0.495591
 O         1.603550        -2.395415        -0.813251
 C         2.377174        -0.687572         0.956025
 H        -0.498978         1.189120         0.411521
 H        -0.206363         0.332188        -1.345443
 H        -0.634354        -0.499474         0.119285
 H         2.328576         2.067603        -0.707412
 H         1.999914         1.915585         1.003324
 H         4.369433         0.701926         2.241510
 H         3.934355        -0.245325        -1.778710
 H         4.446441        -1.412010        -0.408481
 H         1.133205        -2.133291        -1.610857
 H         2.106454        -1.234337         1.788644
