19
Iteration:  1510
 C        -0.121689         0.119411        -0.318879
 C         1.348978         0.246117        -0.000275
 C         2.434450         1.409300         0.072770
 C         3.446339         0.367344         0.513374
 O         4.608193         0.664615         1.161233
 C         3.619268        -0.499531        -0.632075
 C         2.232853        -1.061340        -0.286493
 O         1.814770        -2.170218        -0.921485
 C         2.110413        -0.546397         1.077718
 H        -0.736925         0.767515         0.221739
 H        -0.417053         0.372209        -1.297358
 H        -0.241681        -0.885327        -0.086619
 H         2.706792         1.998993        -0.876093
 H         2.140308         2.048339         0.935989
 H         4.194997         1.415348         1.599133
 H         3.870674        -0.088934        -1.600099
 H         4.454193        -1.162767        -0.394403
 H         0.965010        -2.396267        -0.435859
 H         1.773688        -0.974824         2.095203
