19
Iteration:  4005charge 0 multiplicity 1
 C         0.087089         0.299921        -0.234904
 C         1.518215         0.135988         0.003188
 C         2.334740         1.323532        -0.116961
 C         3.447118         0.413239         0.564947
 O         4.450285         0.934715         1.237262
 C         3.663776        -0.684408        -0.514994
 C         2.254064        -1.135355        -0.341560
 O         1.617204        -2.252338        -0.912241
 C         2.177741        -0.622941         1.088850
 H        -0.422211         0.805135         0.624547
 H        -0.233011         0.865095        -1.137697
 H        -0.491127        -0.595578        -0.252649
 H         2.699099         1.563535        -1.176548
 H         2.105689         2.162575         0.504205
 H         4.359009         1.845083         1.314931
 H         4.103757        -0.214938        -1.406629
 H         4.399327        -1.365725         0.014925
 H         1.115546        -2.002684        -1.716036
 H         1.805500        -1.318554         1.771787
