19
Iteration:  3947charge 0 multiplicity 1
 C        -0.006845         0.119825        -0.272724
 C         1.396753         0.293244        -0.022620
 C         2.306286         1.456172        -0.109389
 C         3.397813         0.431299         0.530376
 O         4.563964         0.671404         1.258681
 C         3.623546        -0.600813        -0.624876
 C         2.210282        -1.062106        -0.351835
 O         1.703193        -2.205617        -0.742601
 C         2.206854        -0.515656         0.960652
 H        -0.386510         0.853858         0.451973
 H        -0.296969         0.527888        -1.254200
 H        -0.413836        -0.862065        -0.092034
 H         2.630026         1.801469        -1.086943
 H         2.016487         2.331399         0.439424
 H         4.389429         0.917353         2.239491
 H         4.197276        -0.306474        -1.564781
 H         4.307027        -1.326169        -0.146484
 H         2.217709        -2.672417        -1.433500
 H         1.758989        -0.753835         1.994473
