19
Iteration:  1038
 C        -0.108275         0.365017        -0.115423
 C         1.395314         0.158653         0.044389
 C         2.317771         1.355607         0.171843
 C         3.328407         0.394721         0.549681
 O         4.493556         0.929012         1.119282
 C         3.674187        -0.550456        -0.623727
 C         2.227680        -1.029684        -0.471059
 O         1.913551        -2.365758        -0.965415
 C         2.204071        -0.696862         0.979483
 H        -0.552766         0.971467         0.649336
 H        -0.254117         0.718738        -1.133575
 H        -0.659938        -0.512686        -0.096134
 H         2.366808         2.048707        -0.626272
 H         2.001469         1.885688         1.066571
 H         5.014601         0.132265         1.483464
 H         4.052478        -0.038765        -1.505295
 H         4.514864        -1.165368        -0.311480
 H         0.945923        -2.367398        -1.078675
 H         1.907222        -1.219627         1.777485
