19
Iteration:  4650charge 0 multiplicity 1
 C        -0.053237         0.275131        -0.062687
 C         1.439453         0.194242        -0.038269
 C         2.373380         1.412181        -0.118552
 C         3.379000         0.424329         0.564959
 O         4.474748         0.754384         1.355023
 C         3.657226        -0.521727        -0.639078
 C         2.171149        -1.050662        -0.471987
 O         1.791469        -2.397987        -0.925697
 C         2.289748        -0.568857         1.013803
 H        -0.467247         1.173370         0.402799
 H        -0.501976         0.301152        -1.067194
 H        -0.630442        -0.616743         0.353802
 H         2.469281         1.744156        -1.162778
 H         2.043297         2.340693         0.513936
 H         4.288346         1.252749         2.256731
 H         3.910849         0.070662        -1.559768
 H         4.338161        -1.411762        -0.511543
 H         1.722724        -2.281012        -1.881753
 H         1.807438        -0.834362         1.928617
