19
Iteration:  4753charge 0 multiplicity 1
 C        -0.092447        -0.045694        -0.312687
 C         1.429947         0.202467         0.000915
 C         2.309442         1.461841         0.016315
 C         3.438818         0.439067         0.461895
 O         4.503685         0.630541         1.337544
 C         3.705714        -0.526480        -0.649340
 C         2.259694        -0.989209        -0.366907
 O         1.635140        -2.142357        -0.853316
 C         2.304625        -0.473505         1.090799
 H        -0.723764         0.100407         0.578116
 H        -0.561681         0.588819        -1.082339
 H        -0.210497        -1.079290        -0.452865
 H         2.511752         1.971991        -0.982152
 H         1.948897         2.192899         0.730523
 H         4.663244         1.512235         1.540491
 H         4.123668        -0.081589        -1.684391
 H         4.333605        -1.361511        -0.282742
 H         1.472266        -2.016960        -1.817806
 H         2.264515        -1.034279         1.940337
