19
Iteration:  4938charge 0 multiplicity 1
 C        -0.096387         0.267083        -0.256006
 C         1.447978         0.159808         0.022306
 C         2.363232         1.402378         0.062693
 C         3.377224         0.339104         0.573642
 O         4.443158         0.887557         1.348652
 C         3.685984        -0.534430        -0.676605
 C         2.205249        -1.101851        -0.381505
 O         1.752941        -2.341556        -0.913678
 C         2.266076        -0.623176         1.025478
 H        -0.688490         1.011113         0.370781
 H        -0.218491         0.701014        -1.303425
 H        -0.606137        -0.650462        -0.234265
 H         2.707269         2.011605        -0.732950
 H         1.906676         2.034086         0.854613
 H         4.909147         1.415895         0.718849
 H         3.987279         0.022214        -1.601231
 H         4.437613        -1.326084        -0.484113
 H         1.565844        -2.204031        -1.877330
 H         2.180466        -1.238898         2.020736
