19
Iteration:  2728
 C        -0.056594         0.169323        -0.268516
 C         1.438774         0.205598        -0.003816
 C         2.338357         1.349877         0.023226
 C         3.465669         0.384363         0.480342
 O         4.449148         0.875503         1.293937
 C         3.689421        -0.564137        -0.719227
 C         2.289439        -1.102012        -0.382471
 O         1.652008        -2.196081        -0.781788
 C         2.261220        -0.544484         1.050801
 H        -0.745139         0.881440         0.083783
 H        -0.061821         0.185356        -1.389193
 H        -0.615286        -0.746792        -0.101180
 H         2.510045         1.672072        -1.051597
 H         2.192934         2.004131         0.858300
 H         4.715696         0.322678         2.012105
 H         3.849222         0.032162        -1.641265
 H         4.479374        -1.327304        -0.439350
 H         1.082043        -2.038175        -1.537152
 H         2.172840        -1.203189         1.972233
