19
Iteration:   263
 C        -0.146951         0.213311         0.009931
 C         1.397398         0.093465         0.106670
 C         2.315671         1.340074        -0.095878
 C         3.476799         0.371949         0.451464
 O         4.357446         0.759106         1.397014
 C         3.778607        -0.494519        -0.818026
 C         2.352242        -0.989161        -0.459760
 O         1.639173        -2.167806        -0.963162
 C         2.295544        -0.628752         1.011061
 H        -0.471496         0.905753         0.798356
 H        -0.354400         0.876488        -0.835354
 H        -0.714521        -0.754975        -0.067562
 H         2.476935         1.683967        -1.143714
 H         2.110258         2.251191         0.592286
 H         5.019418         1.382345         1.000521
 H         4.043431         0.134205        -1.720986
 H         4.538022        -1.226049        -0.622088
 H         1.879449        -2.798553        -0.219182
 H         2.199532        -1.366599         1.927890
