19
Iteration:  4758charge 0 multiplicity 1
 C        -0.091491        -0.026932        -0.266956
 C         1.410824         0.205339         0.006499
 C         2.288461         1.525951        -0.026750
 C         3.425450         0.440462         0.465228
 O         4.521356         0.630604         1.357107
 C         3.747541        -0.519323        -0.636262
 C         2.221254        -0.996880        -0.380426
 O         1.628316        -2.180476        -0.852648
 C         2.311372        -0.500827         1.035693
 H        -0.687399         0.091576         0.651001
 H        -0.415015         0.598534        -1.116135
 H        -0.095449        -1.121386        -0.653964
 H         2.569322         2.032531        -0.923380
 H         1.985517         2.123736         0.876461
 H         4.666013         1.627440         1.519044
 H         4.048806        -0.223938        -1.629160
 H         4.359719        -1.341063        -0.269213
 H         1.532212        -1.999583        -1.803595
 H         2.191107        -1.097712         2.038836
