19
Iteration:   860charge 0 multiplicity 1
 C        -0.030848         0.122305        -0.063473
 C         1.427169         0.229777         0.015329
 C         2.346651         1.420403         0.201810
 C         3.398074         0.370729         0.521282
 O         4.374505         0.826972         1.321706
 C         3.736690        -0.442774        -0.856161
 C         2.318257        -1.078679        -0.505287
 O         1.610200        -2.241241        -0.925428
 C         2.284737        -0.614394         0.887213
 H        -0.582031         0.741798         0.603074
 H        -0.336242         0.493425        -1.043929
 H        -0.277555        -0.961812         0.100964
 H         2.516609         2.174904        -0.594449
 H         1.993251         1.970155         1.124706
 H         5.313594         0.489470         1.124368
 H         3.857323         0.017570        -1.889712
 H         4.650118        -1.049780        -0.656232
 H         1.740021        -2.996656        -0.363162
 H         1.904552        -0.906427         1.957554
