19
Iteration:  3931
 C        -0.091323         0.243755        -0.277264
 C         1.438354         0.161879        -0.091703
 C         2.363205         1.401917        -0.145580
 C         3.412664         0.432992         0.531446
 O         4.523154         0.612620         1.300946
 C         3.714000        -0.486950        -0.694272
 C         2.302599        -1.038381        -0.356910
 O         1.633023        -2.268807        -0.707191
 C         2.212469        -0.451903         1.087638
 H        -0.737880         0.871608         0.370679
 H        -0.349345         0.244091        -1.341299
 H        -0.464950        -0.836075        -0.104879
 H         2.616008         1.904632        -1.118575
 H         2.000550         2.132096         0.646921
 H         4.173035         1.105604         2.140075
 H         3.609518         0.031443        -1.621339
 H         4.590337        -1.151695        -0.559976
 H         2.171080        -2.650297        -1.425654
 H         1.983780        -0.888523         1.998525
