19
Iteration:  1488charge 0 multiplicity 1
 C        -0.139336         0.253089        -0.244906
 C         1.321012         0.193488        -0.039537
 C         2.274173         1.470132         0.082890
 C         3.366189         0.463518         0.667555
 O         4.708421         0.708987         1.153923
 C         3.615949        -0.624823        -0.617921
 C         2.193290        -1.058577        -0.457947
 O         1.898797        -2.354625        -0.909399
 C         2.212301        -0.496949         1.031238
 H        -0.511066         1.101485         0.238174
 H        -0.414847         0.616558        -1.192171
 H        -0.590875        -0.664833        -0.004191
 H         2.566983         2.003852        -0.892520
 H         1.859823         2.117991         0.881773
 H         4.576142         1.221060         2.036388
 H         4.042158        -0.164209        -1.514421
 H         4.297318        -1.450116        -0.384249
 H         0.949688        -2.332893        -0.949676
 H         1.715289        -1.097621         1.923517
