19
Iteration:   257
 C        -0.130457         0.267736        -0.003236
 C         1.414817         0.069306         0.154342
 C         2.335587         1.363914        -0.124136
 C         3.460530         0.357978         0.447050
 O         4.347825         0.784118         1.361286
 C         3.771052        -0.461159        -0.755649
 C         2.259260        -0.990132        -0.492308
 O         1.687870        -2.183078        -0.984075
 C         2.323307        -0.686621         1.056493
 H        -0.466480         0.741093         0.945519
 H        -0.342087         0.820765        -0.939298
 H        -0.676994        -0.652378        -0.083595
 H         2.472006         1.671851        -1.157072
 H         2.186937         2.109283         0.587632
 H         4.960626         1.398523         1.002690
 H         4.042242         0.105748        -1.643946
 H         4.472547        -1.346792        -0.688849
 H         1.723200        -2.792203        -0.249318
 H         2.153949        -1.297357         1.916796
