19
Iteration:  1375charge 0 multiplicity 1
 C        -0.067062         0.091745        -0.211593
 C         1.360751         0.193918        -0.032724
 C         2.355615         1.490278        -0.018138
 C         3.381819         0.446534         0.563751
 O         4.588411         0.755655         1.293280
 C         3.624727        -0.585017        -0.630168
 C         2.204284        -1.024905        -0.361515
 O         1.732112        -2.285970        -0.878450
 C         2.197721        -0.482377         1.075246
 H        -0.655761         0.618181         0.535770
 H        -0.345724         0.578917        -1.145329
 H        -0.256907        -0.917678        -0.294708
 H         2.462590         1.872834        -1.131946
 H         2.016228         2.164287         0.750972
 H         5.442598         0.551159         0.845358
 H         3.784696        -0.210202        -1.622778
 H         4.293750        -1.362374        -0.286484
 H         1.716383        -2.117088        -1.837338
 H         2.030249        -0.826751         2.060884
