19
Iteration:  3468
 C        -0.036459         0.484319        -0.156036
 C         1.389791         0.129980        -0.100678
 C         2.296605         1.346810        -0.109082
 C         3.365978         0.373527         0.528205
 O         4.531293         0.769731         1.287803
 C         3.664976        -0.628192        -0.678391
 C         2.230613        -1.133572        -0.325418
 O         1.930491        -2.371465        -0.877355
 C         2.133196        -0.510609         1.038776
 H        -0.359523         1.018269         0.854731
 H        -0.477442         1.068151        -1.007343
 H        -0.577421        -0.442026         0.060574
 H         2.519817         1.876538        -1.001159
 H         1.959786         2.058140         0.740202
 H         4.196305         1.614146         1.788978
 H         3.892822        -0.092537        -1.632015
 H         4.383185        -1.438162        -0.452627
 H         0.987521        -2.306422        -1.158468
 H         1.877506        -1.061905         1.985146
