19
Iteration:   825charge 0 multiplicity 1
 C        -0.094018         0.063104        -0.198892
 C         1.386587         0.150804         0.105480
 C         2.216666         1.326683         0.082296
 C         3.480253         0.389643         0.568173
 O         4.567169         0.826036         1.405825
 C         3.641751        -0.441848        -0.848867
 C         2.257656        -0.984977        -0.474010
 O         1.575389        -2.114274        -0.933086
 C         2.368211        -0.592737         1.020065
 H        -0.835314         0.351241         0.547440
 H        -0.233331         0.516335        -1.159501
 H        -0.321192        -0.963268        -0.521812
 H         2.523189         1.752093        -0.936167
 H         1.893403         2.033860         0.770994
 H         5.478192         0.557371         1.048839
 H         3.775306         0.070295        -1.859143
 H         4.378646        -1.232706        -0.646059
 H         2.066298        -2.881292        -0.620048
 H         2.213491        -1.079601         1.887047
