19
Iteration:  1044charge 0 multiplicity 1
 C        -0.087520         0.356399        -0.092010
 C         1.353419         0.109105         0.029960
 C         2.291733         1.304756         0.136886
 C         3.422807         0.385054         0.576938
 O         4.476417         0.972175         1.168485
 C         3.652627        -0.573360        -0.640480
 C         2.230783        -1.008295        -0.526063
 O         1.891149        -2.355803        -0.964590
 C         2.219757        -0.669525         0.992709
 H        -0.499178         1.115897         0.625583
 H        -0.229367         0.883114        -1.072665
 H        -0.712982        -0.622276        -0.034682
 H         2.498113         2.140009        -0.712941
 H         1.952669         1.880333         1.024981
 H         5.124195         0.287685         1.437833
 H         4.066525        -0.076137        -1.561716
 H         4.418029        -1.333085        -0.330705
 H         0.960496        -2.284258        -1.183282
 H         1.856011        -1.274881         1.921055
