19
Iteration:  3560
 C        -0.012815         0.089036        -0.297170
 C         1.404921         0.157769         0.064188
 C         2.402730         1.390817        -0.043333
 C         3.435984         0.392708         0.545752
 O         4.558230         0.845382         1.299445
 C         3.706903        -0.607877        -0.654503
 C         2.285796        -1.072020        -0.389179
 O         1.487726        -2.167521        -0.828249
 C         2.270550        -0.538184         1.035794
 H        -0.519312         0.927318         0.250158
 H        -0.109296         0.285792        -1.432728
 H        -0.643282        -0.871515         0.089842
 H         2.636531         1.851934        -1.066522
 H         2.059284         2.157909         0.646078
 H         4.338406         1.647622         1.765818
 H         3.932051        -0.185433        -1.647428
 H         4.375346        -1.419603        -0.317796
 H         1.629848        -2.540073        -1.714545
 H         1.948848        -1.018673         1.876174
