19
Iteration:   175charge 0 multiplicity 1
 C        -0.136757         0.060709        -0.091626
 C         1.352922         0.216680         0.136744
 C         2.326563         1.385192        -0.019498
 C         3.512014         0.351468         0.465074
 O         4.579601         0.765238         1.293216
 C         3.682492        -0.486030        -0.733055
 C         2.230150        -0.997996        -0.439242
 O         1.705166        -2.187668        -0.920544
 C         2.285282        -0.618500         1.022937
 H        -0.795044         0.742963         0.454401
 H        -0.388442         0.356594        -1.112514
 H        -0.423191        -0.988132         0.108653
 H         2.422803         1.862411        -0.988439
 H         2.184074         2.214426         0.708395
 H         4.506984         1.655742         1.690364
 H         3.832185         0.058196        -1.618192
 H         4.349031        -1.280429        -0.561515
 H         0.850028        -2.030098        -1.417414
 H         2.195844        -1.347416         1.798499
