19
Iteration:  2887charge 0 multiplicity 1
 C        -0.168439         0.163460        -0.328317
 C         1.411326         0.204829        -0.033445
 C         2.307187         1.341030         0.032536
 C         3.496947         0.402098         0.518183
 O         4.557023         0.776973         1.298383
 C         3.741256        -0.559280        -0.631273
 C         2.238027        -1.064288        -0.341418
 O         1.657601        -2.207872        -0.820993
 C         2.266775        -0.560810         1.044861
 H        -0.580974         0.778667         0.490754
 H        -0.346459         0.473951        -1.307253
 H        -0.547541        -0.831663        -0.170623
 H         2.529569         1.824191        -0.870665
 H         1.979297         2.055562         0.878907
 H         4.490371         1.639163         0.980266
 H         3.874269        -0.281612        -1.635985
 H         4.355781        -1.376470        -0.333239
 H         1.485946        -1.962252        -1.754698
 H         2.125840        -1.125720         2.078292
