19
Iteration:  3613
 C        -0.087174         0.459657        -0.155613
 C         1.339458         0.158296        -0.077060
 C         2.322731         1.425303        -0.039562
 C         3.388708         0.427480         0.509881
 O         4.616477         0.801323         1.234048
 C         3.677316        -0.596153        -0.567628
 C         2.202867        -1.129071        -0.382372
 O         1.879385        -2.449332        -0.863788
 C         2.139133        -0.603539         0.996197
 H        -0.582042         1.141800         0.560729
 H        -0.353251         0.926469        -1.087009
 H        -0.545469        -0.595455        -0.011013
 H         2.544887         1.886833        -1.052671
 H         1.877752         2.303917         0.690296
 H         4.368491         1.266477         2.041483
 H         3.994018        -0.103336        -1.522340
 H         4.357601        -1.337646        -0.130460
 H         1.252759        -2.644427        -1.583878
 H         1.681645        -0.765749         1.880441
