19
Iteration:   986charge 0 multiplicity 1
 C        -0.062041         0.081095        -0.218124
 C         1.403850         0.193383         0.037665
 C         2.328200         1.379992         0.021234
 C         3.436664         0.391679         0.549673
 O         4.475647         0.769246         1.347144
 C         3.572720        -0.433029        -0.769413
 C         2.246844        -0.978137        -0.396148
 O         1.670550        -2.163878        -0.960566
 C         2.359690        -0.614001         1.019074
 H        -0.627388         0.562786         0.660198
 H        -0.329007         0.486781        -1.214848
 H        -0.435304        -0.967942        -0.298823
 H         2.558975         1.887323        -0.969721
 H         1.976050         2.146118         0.836146
 H         5.270432         0.162670         1.350489
 H         3.755477         0.196426        -1.650003
 H         4.326586        -1.249944        -0.611204
 H         1.789920        -2.638494        -0.100551
 H         2.251765        -1.087047         2.000113
