19
Iteration:  2131
 C        -0.037375         0.254077        -0.189225
 C         1.429531         0.133601        -0.060158
 C         2.417224         1.279909        -0.086143
 C         3.466495         0.395459         0.540117
 O         4.450314         0.919357         1.327005
 C         3.822363        -0.672306        -0.502530
 C         2.306526        -1.084896        -0.421308
 O         1.507645        -2.169195        -1.034071
 C         2.229541        -0.570695         1.025144
 H        -0.402974         1.185279         0.279466
 H        -0.356758         0.181220        -1.286471
 H        -0.536012        -0.554066         0.447169
 H         2.560467         1.908365        -0.992055
 H         1.932344         2.072307         0.598082
 H         4.028087         1.725164         1.594613
 H         4.299757        -0.394056        -1.418285
 H         4.405285        -1.543581        -0.122889
 H         1.396865        -2.880188        -0.342579
 H         2.047089        -1.094100         1.993132
