19
Iteration:  4072charge 0 multiplicity 1
 C        -0.026347         0.201507        -0.237370
 C         1.411636         0.270497        -0.076937
 C         2.419515         1.514520        -0.101752
 C         3.382230         0.408008         0.511180
 O         4.396478         0.647854         1.358603
 C         3.654285        -0.535433        -0.590271
 C         2.270944        -1.054265        -0.432010
 O         1.800664        -2.374786        -0.807505
 C         2.216874        -0.465914         1.020873
 H        -0.397123         1.040609         0.371205
 H        -0.295807         0.254434        -1.292339
 H        -0.542833        -0.688376         0.215881
 H         2.716358         1.919295        -1.127587
 H         1.896528         2.257480         0.525869
 H         5.256931         0.632259         0.767918
 H         3.837052        -0.002278        -1.541655
 H         4.408227        -1.273119        -0.174719
 H         0.914089        -2.376604        -0.384217
 H         1.420536        -0.778862         1.820332
