19
Iteration:  4561
 C        -0.094850         0.380593        -0.312894
 C         1.346292         0.093778         0.033613
 C         2.370311         1.225020         0.048585
 C         3.418904         0.352185         0.532465
 O         4.480787         0.900425         1.120188
 C         3.701644        -0.557883        -0.628609
 C         2.281622        -1.166583        -0.228756
 O         1.757642        -2.224658        -0.882236
 C         2.192567        -0.648588         1.075085
 H        -0.660389         0.800757         0.567597
 H        -0.011957         1.170965        -1.075200
 H        -0.438457        -0.574269        -0.691349
 H         2.483348         1.961161        -0.719206
 H         2.195714         1.944247         0.951113
 H         4.249292         1.442738         1.994561
 H         3.787834        -0.104731        -1.701916
 H         4.482373        -1.350235        -0.550193
 H         1.702105        -1.957468        -1.804401
 H         2.111013        -0.871138         2.106774
