19
Iteration:  3005charge 0 multiplicity 1
 C        -0.122077         0.248782        -0.186775
 C         1.413087         0.206295        -0.144303
 C         2.371635         1.413091        -0.092672
 C         3.481836         0.332140         0.484874
 O         4.495228         0.693308         1.353237
 C         3.604470        -0.532610        -0.763940
 C         2.265563        -1.011111        -0.432913
 O         1.787771        -2.298526        -0.673822
 C         2.234361        -0.498402         1.036502
 H        -0.517145         0.823285         0.677762
 H        -0.389592         0.775511        -1.174001
 H        -0.678051        -0.734202        -0.202373
 H         2.565232         2.094632        -0.956623
 H         1.964189         1.972887         0.770231
 H         4.100417         0.990152         2.248061
 H         3.626226         0.082581        -1.734935
 H         4.321244        -1.387522        -0.674693
 H         1.985758        -2.514404        -1.584540
 H         1.829243        -0.896420         2.074056
