19
Iteration:   167
 C        -0.154443         0.084871        -0.097795
 C         1.362286         0.209007         0.139194
 C         2.341246         1.330866         0.014573
 C         3.494771         0.366619         0.491181
 O         4.581334         0.766091         1.306895
 C         3.661694        -0.464563        -0.778581
 C         2.275474        -1.018640        -0.421215
 O         1.667180        -2.188164        -0.903978
 C         2.346978        -0.579428         0.970583
 H        -0.857008         0.734963         0.462044
 H        -0.358914         0.174957        -1.160219
 H        -0.417789        -0.970138         0.130829
 H         2.374004         1.670887        -1.018913
 H         2.175982         2.113062         0.677647
 H         4.103045         1.491895         1.746442
 H         3.878461         0.012013        -1.730942
 H         4.336545        -1.340381        -0.725058
 H         1.062353        -1.785266        -1.590994
 H         2.115302        -1.068452         2.070074
