19
Iteration:  2532
 C        -0.118507         0.251401        -0.245002
 C         1.353646         0.215743        -0.030937
 C         2.256991         1.441387         0.048368
 C         3.439765         0.413902         0.537187
 O         4.589692         0.793926         1.294095
 C         3.674223        -0.505227        -0.730269
 C         2.293648        -1.094599        -0.417912
 O         1.752834        -2.377447        -0.791125
 C         2.171872        -0.560483         0.981188
 H        -0.370959         1.241374         0.184758
 H        -0.479493         0.445602        -1.200649
 H        -0.721564        -0.538898         0.272921
 H         2.424818         2.102839        -0.733182
 H         1.766223         2.103064         0.817111
 H         4.828138         0.244397         2.001128
 H         3.913521         0.006529        -1.661767
 H         4.553357        -1.121326        -0.413356
 H         2.097858        -2.418801        -1.689914
 H         1.962679        -1.249632         1.784776
