19
Iteration:  1787charge 0 multiplicity 1
 C        -0.082037         0.314798        -0.096603
 C         1.389870         0.198818        -0.082198
 C         2.422665         1.352073        -0.132432
 C         3.471196         0.355248         0.447787
 O         4.402505         0.763037         1.481489
 C         3.781020        -0.557985        -0.709112
 C         2.230923        -1.088247        -0.471882
 O         1.623075        -2.323899        -0.746871
 C         2.287816        -0.512341         0.916272
 H        -0.395982         0.851997         0.821426
 H        -0.412603         1.014761        -0.862466
 H        -0.661968        -0.682763        -0.117815
 H         2.692782         1.704630        -1.125909
 H         2.223099         2.237243         0.523295
 H         3.918268         1.405486         1.957047
 H         4.015610        -0.063571        -1.657513
 H         4.453063        -1.357101        -0.733089
 H         1.801751        -2.409775        -1.702172
 H         2.249850        -1.056688         1.808769
