19
Iteration:  3510charge 0 multiplicity 1
 C        -0.082382         0.189843        -0.192074
 C         1.390368         0.271035        -0.059394
 C         2.355285         1.366739        -0.088543
 C         3.451989         0.337721         0.548228
 O         4.548593         0.806814         1.219231
 C         3.721050        -0.667940        -0.577082
 C         2.271018        -0.990555        -0.375569
 O         1.719068        -2.241408        -0.846624
 C         2.136333        -0.541457         1.040300
 H        -0.543093         0.970604         0.419669
 H        -0.318312         0.274894        -1.255075
 H        -0.513327        -0.689142         0.117809
 H         2.582512         1.883370        -1.027679
 H         2.004565         2.160630         0.752575
 H         4.348789         1.300854         2.020355
 H         3.960383        -0.312318        -1.603600
 H         4.409200        -1.451269        -0.183215
 H         1.111408        -2.153513        -1.587344
 H         2.070985        -1.188572         1.951577
