19
Iteration:  3639charge 0 multiplicity 1
 C        -0.105069         0.370078        -0.115220
 C         1.368312         0.050167        -0.103868
 C         2.428739         1.318544        -0.088992
 C         3.353541         0.362128         0.514746
 O         4.453519         0.791545         1.271174
 C         3.725969        -0.627766        -0.670002
 C         2.288856        -1.056616        -0.415195
 O         1.844190        -2.268339        -0.831565
 C         2.170578        -0.465772         1.037376
 H        -0.354586         0.962720         0.790158
 H        -0.355052         1.127643        -0.998605
 H        -0.836153        -0.575370        -0.173984
 H         2.732976         1.705957        -1.160669
 H         2.094101         2.114835         0.522964
 H         4.122224         1.313929         2.046485
 H         4.025479        -0.222961        -1.633330
 H         4.435273        -1.397827        -0.300440
 H         0.870031        -2.324865        -0.961597
 H         2.053591        -1.064426         2.043296
