19
Iteration:  2098charge 0 multiplicity 1
 C        -0.162998         0.392437        -0.186053
 C         1.369126         0.208036        -0.068209
 C         2.465444         1.353338        -0.121392
 C         3.419553         0.376163         0.512586
 O         4.502442         0.804753         1.286909
 C         3.676825        -0.627979        -0.582182
 C         2.255874        -1.097147        -0.304652
 O         1.791362        -2.264606        -0.956070
 C         2.143093        -0.562534         1.039638
 H        -0.502821         1.180838         0.531420
 H        -0.507928         0.631251        -1.290111
 H        -0.603503        -0.661575         0.074147
 H         2.734296         1.668680        -1.141713
 H         1.894845         2.106508         0.520041
 H         4.305241         1.018725         2.193309
 H         3.828477        -0.285536        -1.572337
 H         4.274581        -1.503367        -0.226020
 H         2.336866        -3.029532        -0.746710
 H         1.852554        -0.846223         1.999091
