19
Iteration:   505charge 0 multiplicity 1
 C        -0.113795         0.234541        -0.234855
 C         1.383970         0.061729         0.069083
 C         2.282139         1.295544         0.156571
 C         3.467487         0.374994         0.477981
 O         4.471463         1.041376         1.200214
 C         3.781081        -0.677364        -0.726762
 C         2.330878        -1.065855        -0.394268
 O         1.558023        -2.074493        -0.966290
 C         2.338362        -0.669435         1.048094
 H        -0.375848         1.097817         0.377214
 H        -0.242923         0.355047        -1.293826
 H        -0.803366        -0.552698         0.057558
 H         2.214739         1.997042        -0.664728
 H         2.009611         1.884695         1.002991
 H         4.961934         0.457253         1.765927
 H         4.164663        -0.312614        -1.678230
 H         4.320909        -1.469721        -0.304624
 H         1.800992        -2.887970        -0.524365
 H         2.144521        -1.245840         1.877155
