19
Iteration:  3709
 C        -0.072453         0.155376        -0.288660
 C         1.387002         0.192635        -0.023151
 C         2.355064         1.415075        -0.011030
 C         3.375641         0.370700         0.579317
 O         4.615862         0.817823         1.165671
 C         3.735265        -0.682638        -0.516859
 C         2.300668        -1.092135        -0.336345
 O         1.601008        -2.151389        -0.921400
 C         2.120013        -0.532675         1.036730
 H        -0.550359         0.991313         0.344907
 H        -0.345756         0.429431        -1.346887
 H        -0.512107        -0.787357        -0.020823
 H         2.780487         1.858392        -0.887779
 H         2.038237         2.198239         0.673679
 H         4.490346         1.655012         1.733469
 H         4.036621        -0.233531        -1.504223
 H         4.554061        -1.338100        -0.210994
 H         2.101731        -2.995560        -0.823953
 H         1.832036        -0.929074         1.967257
