19
Iteration:  4301
 C        -0.075029         0.240055        -0.211499
 C         1.380641         0.121986        -0.047170
 C         2.394783         1.391100        -0.106466
 C         3.407367         0.397898         0.608748
 O         4.548820         0.937570         1.189568
 C         3.690184        -0.675304        -0.462391
 C         2.273599        -1.138796        -0.341853
 O         1.682991        -2.224824        -0.971268
 C         2.213471        -0.578685         1.029141
 H        -0.507604         1.088173         0.350447
 H        -0.512077         0.225933        -1.220169
 H        -0.738927        -0.558429         0.267117
 H         2.470915         1.691094        -1.215632
 H         2.287722         2.262809         0.535552
 H         4.627236         0.539480         2.095403
 H         4.138714        -0.231008        -1.334830
 H         4.389353        -1.347994         0.025683
 H         0.999433        -1.832730        -1.560874
 H         2.034611        -0.912388         2.054493
