19
Iteration:  2928
 C        -0.057467         0.157323        -0.172942
 C         1.399677         0.211435         0.014317
 C         2.407745         1.347570        -0.054296
 C         3.464066         0.369957         0.550598
 O         4.536471         0.960508         1.188960
 C         3.720307        -0.717238        -0.523153
 C         2.211679        -1.070855        -0.318433
 O         1.654859        -2.248576        -1.045372
 C         2.188815        -0.574870         1.088417
 H        -0.520339         0.930621         0.410340
 H        -0.375090         0.284613        -1.269635
 H        -0.627911        -0.747917         0.212456
 H         2.596656         1.798259        -1.078119
 H         2.175717         2.209268         0.683953
 H         4.447793         1.462294         2.086179
 H         4.065470        -0.142228        -1.461961
 H         4.399143        -1.517899        -0.143490
 H         1.247215        -1.723847        -1.781712
 H         1.829803        -1.199040         2.142872
