19
Iteration:  4298
 C        -0.124487         0.248992        -0.218507
 C         1.386479         0.140364        -0.015363
 C         2.384212         1.381914        -0.124141
 C         3.446744         0.389044         0.613046
 O         4.564658         0.970916         1.206168
 C         3.686307        -0.664781        -0.479161
 C         2.263339        -1.149413        -0.350891
 O         1.687531        -2.248814        -0.989273
 C         2.218255        -0.621568         1.065795
 H        -0.563379         1.159764         0.298297
 H        -0.448879         0.230268        -1.294037
 H        -0.704422        -0.499690         0.192580
 H         2.543468         1.703988        -1.199552
 H         2.334089         2.289805         0.546607
 H         4.621605         0.537216         2.013317
 H         4.141277        -0.238704        -1.346728
 H         4.268965        -1.388884        -0.009716
 H         0.970108        -1.798754        -1.498984
 H         1.991040        -0.816992         2.052386
