19
Iteration:  4905
 C        -0.072565        -0.046329        -0.310357
 C         1.415353         0.157499        -0.016449
 C         2.312456         1.480102        -0.047587
 C         3.433271         0.409912         0.518542
 O         4.525951         0.660230         1.412587
 C         3.707056        -0.487226        -0.696978
 C         2.287619        -1.023280        -0.401961
 O         1.554847        -2.111778        -0.814938
 C         2.323989        -0.502689         1.066440
 H        -0.783547         0.644095         0.230038
 H        -0.214620         0.036560        -1.436877
 H        -0.294096        -1.060607        -0.085991
 H         2.543349         2.025198        -0.971613
 H         1.889396         2.131064         0.753066
 H         4.583142         1.591805         1.582768
 H         4.066031        -0.148305        -1.628100
 H         4.429439        -1.301782        -0.425882
 H         1.575288        -1.979901        -1.780477
 H         2.336382        -1.142833         1.991087
