19
Iteration:  4305charge 0 multiplicity 1
 C        -0.044864         0.218048        -0.194220
 C         1.393271         0.119009        -0.074283
 C         2.400652         1.381290        -0.095855
 C         3.357337         0.404259         0.578806
 O         4.530325         0.898813         1.183970
 C         3.706647        -0.681081        -0.448590
 C         2.282423        -1.118379        -0.339964
 O         1.676619        -2.200417        -0.949610
 C         2.202052        -0.524242         1.013521
 H        -0.402364         1.064502         0.373596
 H        -0.523687         0.272476        -1.181293
 H        -0.644624        -0.617546         0.322049
 H         2.483630         1.680190        -1.111704
 H         2.136439         2.239704         0.547836
 H         4.643922         0.580563         2.114370
 H         4.142982        -0.251669        -1.419654
 H         4.519636        -1.361962         0.044251
 H         1.052924        -1.905674        -1.623084
 H         2.026268        -1.032239         2.022611
