19
Iteration:  4662charge 0 multiplicity 1
 C        -0.163692         0.379998        -0.054436
 C         1.355849         0.157730         0.005572
 C         2.352068         1.361565        -0.089953
 C         3.386998         0.386501         0.590122
 O         4.501146         0.855105         1.298557
 C         3.692588        -0.579661        -0.662859
 C         2.293063        -1.095059        -0.462777
 O         1.823669        -2.330483        -0.912134
 C         2.199413        -0.619975         0.953157
 H        -0.393714         1.360120         0.319435
 H        -0.270204         0.358250        -1.130677
 H        -0.731281        -0.419448         0.533691
 H         2.708857         1.755216        -1.065770
 H         1.899626         2.182656         0.570652
 H         4.147185         0.905124         2.187458
 H         4.170823        -0.064584        -1.576880
 H         4.422672        -1.396645        -0.276787
 H         1.706731        -2.316730        -1.885825
 H         2.062993        -1.227483         1.913514
