19
Iteration:  3739charge 0 multiplicity 1
 C        -0.076125         0.323193        -0.360324
 C         1.322837         0.184358         0.064081
 C         2.301190         1.352669        -0.026217
 C         3.389827         0.361929         0.540533
 O         4.639343         0.823225         1.223951
 C         3.613993        -0.675288        -0.577136
 C         2.192069        -1.076568        -0.359115
 O         1.748712        -2.277156        -0.843737
 C         2.240894        -0.527152         1.074585
 H        -0.366953         1.285762         0.103922
 H        -0.206776         0.307797        -1.486342
 H        -0.718567        -0.513183        -0.067487
 H         2.619745         1.903921        -0.997381
 H         2.067571         2.082869         0.706855
 H         4.349703         1.248563         1.991696
 H         3.771426        -0.125712        -1.491773
 H         4.369434        -1.412610        -0.423101
 H         2.254549        -2.561141        -1.610968
 H         2.147882        -0.848714         2.037489
