19
Iteration:   863
 C        -0.021846         0.133752        -0.049978
 C         1.407311         0.238295         0.026757
 C         2.339029         1.404133         0.173100
 C         3.388476         0.382077         0.522091
 O         4.403046         0.836847         1.336335
 C         3.738788        -0.444400        -0.858640
 C         2.305749        -1.090178        -0.500984
 O         1.628976        -2.240293        -0.945472
 C         2.280917        -0.607879         0.881081
 H        -0.570559         0.815967         0.631066
 H        -0.366023         0.487293        -1.063815
 H        -0.263265        -0.918148         0.109243
 H         2.392057         2.115511        -0.653738
 H         1.946260         1.876882         1.203378
 H         5.236039         0.388042         1.065608
 H         3.900900         0.014633        -1.835218
 H         4.568454        -1.133228        -0.550383
 H         1.769637        -3.016874        -0.328505
 H         1.919170        -0.929723         1.958316
