19
Iteration:  1291
 C        -0.120680         0.159382        -0.088963
 C         1.399311         0.164105        -0.009451
 C         2.429391         1.324476        -0.059830
 C         3.419111         0.398341         0.518290
 O         4.487501         0.928379         1.263750
 C         3.734931        -0.589697        -0.668992
 C         2.270819        -1.087263        -0.405168
 O         1.631854        -2.228667        -0.887764
 C         2.258083        -0.575686         1.011315
 H        -0.471359         0.926696         0.624001
 H        -0.442681         0.369744        -1.143841
 H        -0.737382        -0.700664         0.229903
 H         2.596383         1.786608        -0.958087
 H         2.177640         2.109731         0.631792
 H         4.328042         0.786587         2.197762
 H         3.949259        -0.182355        -1.699337
 H         4.549985        -1.297815        -0.403301
 H         1.687743        -2.067010        -1.852320
 H         2.074292        -1.021566         1.908955
