19
Iteration:   218charge 0 multiplicity 1
 C        -0.134579         0.239462        -0.023165
 C         1.355887         0.116991        -0.045412
 C         2.342242         1.389092         0.093199
 C         3.405823         0.424807         0.480957
 O         4.562133         0.868797         1.265308
 C         3.753520        -0.639334        -0.687730
 C         2.223634        -1.146069        -0.391848
 O         1.789714        -2.244122        -1.107714
 C         2.209362        -0.590661         1.073664
 H        -0.442546         0.837918         0.847466
 H        -0.585609         1.017306        -0.695072
 H        -0.609187        -0.767150        -0.068860
 H         2.301378         2.293693        -0.569515
 H         2.109060         1.851026         1.182336
 H         4.910401         1.714941         0.836300
 H         3.834014        -0.054931        -1.681352
 H         4.541166        -1.371745        -0.537134
 H         1.006479        -2.761403        -0.738371
 H         1.757547        -0.866097         2.013743
