19
Iteration:  3946charge 0 multiplicity 1
 C        -0.005246         0.128787        -0.273695
 C         1.396382         0.292827        -0.029994
 C         2.305992         1.449710        -0.108615
 C         3.391446         0.428754         0.524375
 O         4.563649         0.665449         1.264832
 C         3.621806        -0.591177        -0.626598
 C         2.220860        -1.062837        -0.348684
 O         1.701413        -2.205457        -0.738136
 C         2.212530        -0.516055         0.962665
 H        -0.401169         0.857345         0.426546
 H        -0.288645         0.537927        -1.250485
 H        -0.393863        -0.896869        -0.062245
 H         2.583497         1.770876        -1.073394
 H         2.009129         2.348408         0.429113
 H         4.383553         0.915380         2.208573
 H         4.195437        -0.273489        -1.573878
 H         4.310950        -1.322281        -0.186519
 H         2.209255        -2.684460        -1.427040
 H         1.736524        -0.745707         2.008949
