19
Iteration:  2057charge 0 multiplicity 1
 C        -0.037569         0.299634        -0.322610
 C         1.426552         0.241435        -0.095239
 C         2.327756         1.445211        -0.075598
 C         3.389442         0.488248         0.534503
 O         4.540931         0.612252         1.311776
 C         3.591603        -0.559115        -0.619859
 C         2.252250        -1.067113        -0.425662
 O         1.696756        -2.308690        -0.688405
 C         2.236034        -0.566071         0.990880
 H        -0.494633         0.371222         0.750453
 H        -0.327452         0.931579        -1.188734
 H        -0.343596        -0.726016        -0.609835
 H         2.432962         2.011953        -0.960425
 H         2.172230         2.214170         0.729082
 H         4.391178         1.447339         1.900931
 H         4.064664        -0.213508        -1.595008
 H         4.341561        -1.219855        -0.182997
 H         2.224659        -2.609665        -1.445590
 H         1.813604        -1.030893         1.914164
