19
Iteration:  3044
 C        -0.129109         0.256328        -0.294450
 C         1.396335         0.185262         0.021128
 C         2.377582         1.409992         0.033832
 C         3.389154         0.409756         0.582598
 O         4.614338         0.812940         1.119439
 C         3.755608        -0.623593        -0.502230
 C         2.199266        -1.100247        -0.377018
 O         1.709142        -2.295701        -0.858275
 C         2.199090        -0.596165         1.018507
 H        -0.703435         0.678127         0.565052
 H        -0.201107         0.787759        -1.239925
 H        -0.673419        -0.686280        -0.535832
 H         2.524169         1.971137        -0.936464
 H         1.862001         2.080675         0.804985
 H         4.316140         1.634237         1.581917
 H         4.084669        -0.131729        -1.426780
 H         4.459779        -1.288142         0.019071
 H         1.293338        -2.184003        -1.750672
 H         1.929069        -1.015057         2.070327
