19
Iteration:  2246charge 0 multiplicity 1
 C        -0.105525         0.380374        -0.226727
 C         1.440161         0.183468        -0.082277
 C         2.427831         1.356563        -0.070185
 C         3.408603         0.406199         0.540190
 O         4.401636         0.973241         1.407371
 C         3.721903        -0.610901        -0.673701
 C         2.274945        -1.134140        -0.418969
 O         1.686619        -2.349122        -0.866754
 C         2.206736        -0.601707         0.950930
 H        -0.555541         0.676887         0.790756
 H        -0.371381         0.954259        -1.095635
 H        -0.603151        -0.600383        -0.345353
 H         2.567367         1.899916        -0.970566
 H         2.277461         2.011032         0.749709
 H         5.153158         0.377472         1.406115
 H         3.984718        -0.170397        -1.660768
 H         4.435383        -1.364004        -0.417985
 H         1.575358        -2.899060        -0.040149
 H         1.936593        -1.194586         1.818121
