19
Iteration:  4607
 C        -0.130991         0.025698        -0.234559
 C         1.429642         0.230154        -0.061828
 C         2.333513         1.424738         0.003453
 C         3.435563         0.399930         0.491821
 O         4.564041         0.731981         1.318026
 C         3.766086        -0.593263        -0.596738
 C         2.279524        -0.991856        -0.468891
 O         1.589151        -2.171114        -0.792765
 C         2.256579        -0.546047         0.979103
 H        -0.614406         0.305291         0.702727
 H        -0.573447         0.608988        -1.031928
 H        -0.240086        -1.101651        -0.398369
 H         2.604233         2.078161        -0.817726
 H         2.095204         2.191881         0.782742
 H         4.273807         1.663434         1.628079
 H         4.285373        -0.225014        -1.603134
 H         4.474729        -1.378560        -0.091079
 H         1.214153        -2.156686        -1.686377
 H         1.906110        -0.927239         1.883661
