19
Iteration:  3364charge 0 multiplicity 1
 C        -0.162006         0.138888        -0.270571
 C         1.410741         0.185022         0.001087
 C         2.381158         1.417211        -0.039565
 C         3.471731         0.355612         0.578054
 O         4.648216         0.796268         1.240566
 C         3.666005        -0.645074        -0.577899
 C         2.228438        -0.993050        -0.328420
 O         1.672586        -2.216385        -0.888644
 C         2.210064        -0.570924         1.057578
 H        -0.627763         1.044298        -0.059316
 H        -0.282658        -0.106949        -1.358771
 H        -0.708233        -0.742670         0.129139
 H         2.349693         1.791394        -1.112650
 H         1.946013         2.230210         0.723799
 H         4.440302         1.584893         1.791415
 H         3.828639        -0.100019        -1.563125
 H         4.319770        -1.520780        -0.461661
 H         1.467200        -1.982494        -1.838932
 H         1.983815        -0.706272         2.201163
