19
Iteration:  2060charge 0 multiplicity 1
 C        -0.043998         0.306983        -0.306086
 C         1.448895         0.225051        -0.092214
 C         2.323213         1.434439        -0.071708
 C         3.398831         0.500646         0.536122
 O         4.535787         0.605955         1.310313
 C         3.597206        -0.549096        -0.620248
 C         2.221450        -1.088459        -0.428255
 O         1.723071        -2.302335        -0.698028
 C         2.213452        -0.537389         0.982631
 H        -0.548741         0.429613         0.642553
 H        -0.351588         0.907274        -1.098737
 H        -0.381004        -0.633684        -0.542137
 H         2.430716         2.066117        -1.024290
 H         2.089868         2.185970         0.656182
 H         4.452400         1.316746         1.924867
 H         4.123524        -0.269177        -1.602894
 H         4.314639        -1.268050        -0.228825
 H         2.321125        -2.673335        -1.414899
 H         1.810142        -1.004590         2.011409
