19
Iteration:  2431charge 0 multiplicity 1
 C        -0.136267         0.110390        -0.168647
 C         1.351599         0.217476        -0.114484
 C         2.346156         1.422584        -0.064313
 C         3.442092         0.436541         0.503611
 O         4.486235         0.868068         1.364754
 C         3.694082        -0.717199        -0.595848
 C         2.330654        -1.084816        -0.331104
 O         1.760913        -2.192643        -0.908523
 C         2.210162        -0.543510         1.022344
 H        -0.509934         0.448962         0.842214
 H        -0.374202         0.771461        -1.090494
 H        -0.690731        -0.793289        -0.309808
 H         2.609320         2.027799        -0.949175
 H         2.200647         2.181967         0.794105
 H         5.315459         0.766280         0.785473
 H         4.101620        -0.485315        -1.637528
 H         4.211961        -1.597558        -0.245579
 H         0.907183        -2.018087        -1.386236
 H         1.729163        -0.776442         2.002654
