19
Iteration:  4831
 C        -0.100189         0.448399        -0.074218
 C         1.368930         0.168781         0.071745
 C         2.283357         1.313110        -0.062366
 C         3.379065         0.436899         0.508833
 O         4.468844         0.917711         1.339857
 C         3.777179        -0.554923        -0.636721
 C         2.241779        -1.181037        -0.431322
 O         1.830283        -2.436550        -1.062357
 C         2.199304        -0.653969         1.066255
 H        -0.271499         1.273799         0.644265
 H        -0.131582         0.887547        -1.088668
 H        -0.795304        -0.314345        -0.062579
 H         2.394708         1.791690        -1.105849
 H         1.946582         1.949104         0.734154
 H         4.208030         1.392478         2.102699
 H         4.240567        -0.139796        -1.595526
 H         4.486444        -1.195373        -0.190112
 H         1.397088        -2.174391        -1.912976
 H         2.261514        -1.479434         1.845516
