19
Iteration:  1964
 C        -0.167267         0.328630        -0.180983
 C         1.379733         0.196990        -0.087107
 C         2.401675         1.341105        -0.131037
 C         3.389193         0.369191         0.575301
 O         4.604288         0.830075         1.298061
 C         3.646075        -0.725744        -0.546309
 C         2.203984        -1.110293        -0.359751
 O         1.907316        -2.211568        -1.031998
 C         2.136245        -0.519047         1.084215
 H        -0.488628         1.211372         0.330111
 H        -0.712776         0.244149        -1.176226
 H        -0.794191        -0.387223         0.540785
 H         2.801384         1.815206        -1.054171
 H         2.124236         2.089772         0.611520
 H         4.450172         1.521503         1.899355
 H         3.900207        -0.508777        -1.578003
 H         4.218716        -1.619647        -0.287003
 H         0.975784        -2.377152        -0.810844
 H         1.792953        -1.029031         2.124082
