19
Iteration:  1854charge 0 multiplicity 1
 C        -0.066710         0.170249        -0.380563
 C         1.414523         0.142132        -0.040978
 C         2.317090         1.332481         0.091425
 C         3.462010         0.351468         0.590165
 O         4.666155         0.916400         1.095750
 C         3.595459        -0.740631        -0.471537
 C         2.206416        -1.070160        -0.302013
 O         1.711509        -2.099519        -1.018071
 C         2.182564        -0.526563         1.147437
 H        -0.529440         0.774944         0.358910
 H        -0.099262         0.727153        -1.347587
 H        -0.482002        -0.910436        -0.350850
 H         2.427198         1.868258        -0.800443
 H         1.965676         2.100988         0.772764
 H         4.763091         0.722485         2.103887
 H         3.984685        -0.398078        -1.406213
 H         4.323142        -1.419733        -0.147136
 H         0.752398        -2.289739        -1.076672
 H         1.838125        -0.720861         2.151440
