19
Iteration:  2381
 C        -0.099226         0.350158        -0.323599
 C         1.356545         0.171602        -0.004852
 C         2.320924         1.372908         0.037304
 C         3.410122         0.395249         0.527114
 O         4.431250         0.765706         1.353992
 C         3.673405        -0.604885        -0.790012
 C         2.314364        -1.086934        -0.386640
 O         1.738693        -2.249995        -0.732583
 C         2.364629        -0.644317         1.048399
 H        -0.358838         1.221138         0.256218
 H        -0.307203         0.337538        -1.336263
 H        -0.774622        -0.420300         0.178197
 H         2.420932         1.899629        -0.919837
 H         1.758274         1.987596         0.681830
 H         4.572413         1.654167         1.148428
 H         3.716334        -0.122695        -1.737672
 H         4.590148        -1.260749        -0.613837
 H         1.753379        -2.454036        -1.670134
 H         2.136328        -1.119656         1.910845
