19
Iteration:  1565charge 0 multiplicity 1
 C        -0.094017         0.257127        -0.180933
 C         1.380520         0.143546        -0.047422
 C         2.400408         1.291714        -0.038908
 C         3.467211         0.321632         0.593244
 O         4.471964         0.913983         1.270124
 C         3.867116        -0.624671        -0.628430
 C         2.291240        -1.074595        -0.453886
 O         1.524358        -2.114239        -0.878211
 C         2.231666        -0.630240         1.014245
 H        -0.510190         0.941863         0.577926
 H        -0.269376         0.559527        -1.205828
 H        -0.717169        -0.597975        -0.099471
 H         2.596367         1.831964        -1.041485
 H         1.969525         2.088668         0.633687
 H         4.044818         1.272312         2.008587
 H         4.030623        -0.225029        -1.614828
 H         4.462300        -1.456584        -0.267392
 H         2.122954        -2.827378        -1.191988
 H         2.109743        -1.164680         1.951703
