19
Iteration:  3317charge 0 multiplicity 1
 C        -0.096512         0.375154        -0.201558
 C         1.464561         0.215910        -0.062516
 C         2.305336         1.370155         0.019173
 C         3.379763         0.374591         0.501532
 O         4.535511         0.858822         1.349558
 C         3.701747        -0.614920        -0.749737
 C         2.266944        -1.121227        -0.450444
 O         1.690933        -2.388623        -0.746805
 C         2.276067        -0.592274         0.936721
 H        -0.370580         1.396681         0.149671
 H        -0.608176         0.195195        -1.094876
 H        -0.650807        -0.345540         0.452262
 H         2.675043         1.973331        -0.995854
 H         2.018584         1.950625         0.963998
 H         4.078061         1.405458         2.118050
 H         4.074921        -0.056012        -1.629709
 H         4.459350        -1.362499        -0.453391
 H         1.564497        -2.426623        -1.720356
 H         1.880092        -0.924360         1.769006
