19
Iteration:  4051
 C        -0.086716         0.296515        -0.273648
 C         1.346859         0.263121        -0.133336
 C         2.429896         1.378340        -0.065885
 C         3.423996         0.405079         0.497721
 O         4.435419         0.755889         1.455489
 C         3.674353        -0.650809        -0.712965
 C         2.255447        -1.051715        -0.398015
 O         1.826016        -2.306511        -0.764915
 C         2.206397        -0.500193         0.996696
 H        -0.580386         1.019404         0.412936
 H        -0.451654         0.443114        -1.293436
 H        -0.576240        -0.704724         0.033960
 H         2.535864         1.971518        -1.051817
 H         2.170494         2.037787         0.844961
 H         5.017611         1.320827         0.975877
 H         3.783619        -0.404859        -1.757720
 H         4.158342        -1.579013        -0.364099
 H         0.875839        -2.536656        -0.721447
 H         2.200144        -1.014879         2.069887
