19
Iteration:  2578charge 0 multiplicity 1
 C        -0.037372         0.119679        -0.204393
 C         1.414483         0.171200         0.036743
 C         2.368805         1.480362        -0.026227
 C         3.399216         0.452484         0.541866
 O         4.442438         0.847880         1.407167
 C         3.712035        -0.625555        -0.673504
 C         2.277469        -1.071995        -0.475349
 O         1.673283        -2.268973        -0.885099
 C         2.216350        -0.512542         1.022814
 H        -0.670826         0.945121         0.097993
 H        -0.176230         0.153701        -1.223963
 H        -0.373019        -0.895601         0.157042
 H         2.477903         1.949725        -0.968828
 H         2.196826         2.373164         0.644710
 H         5.251628         0.416032         1.031666
 H         3.880518        -0.238221        -1.641677
 H         4.474182        -1.429112        -0.445575
 H         1.001058        -2.104198        -1.548250
 H         2.183965        -1.164305         2.010303
