19
Iteration:  3581
 C        -0.093987         0.305001        -0.267942
 C         1.354887         0.199835        -0.116396
 C         2.379735         1.346322         0.017460
 C         3.407373         0.345705         0.488240
 O         4.545885         0.792371         1.211497
 C         3.686939        -0.649395        -0.592656
 C         2.218882        -1.030892        -0.332586
 O         1.741122        -2.210885        -0.780434
 C         2.231001        -0.602158         1.077050
 H        -0.669250         1.015184         0.372603
 H        -0.387897         0.308733        -1.359304
 H        -0.461215        -0.793531         0.102353
 H         2.507740         1.910413        -0.964526
 H         2.018442         2.083526         0.838588
 H         4.270645         1.590122         1.683904
 H         3.914654        -0.117804        -1.546866
 H         4.359819        -1.477904        -0.359453
 H         1.951541        -2.227428        -1.727938
 H         2.002571        -1.143710         1.908268
