19
Iteration:   815charge 0 multiplicity 1
 C        -0.104989         0.069134        -0.212203
 C         1.355427         0.079437         0.205477
 C         2.210841         1.425217         0.068847
 C         3.458185         0.430419         0.485633
 O         4.562191         0.802190         1.333921
 C         3.699305        -0.504282        -0.717915
 C         2.263677        -0.985239        -0.451904
 O         1.610730        -2.114567        -1.008088
 C         2.331665        -0.613869         1.075840
 H        -0.790441         0.478426         0.521769
 H        -0.213390         0.795340        -1.003698
 H        -0.395284        -0.980314        -0.445073
 H         2.220227         1.708070        -1.052841
 H         1.982775         2.261355         0.694652
 H         5.358393         0.439328         0.869926
 H         3.925459         0.114862        -1.663561
 H         4.482745        -1.273975        -0.620880
 H         2.245887        -2.790050        -0.795816
 H         2.152698        -1.128122         1.961397
