19
Iteration:  1625charge 0 multiplicity 1
 C        -0.203655         0.338686        -0.126915
 C         1.372183         0.193647        -0.064284
 C         2.349650         1.373961        -0.102443
 C         3.393928         0.397756         0.493806
 O         4.497447         0.612825         1.297502
 C         3.712381        -0.578317        -0.562694
 C         2.327626        -1.017155        -0.332257
 O         1.900087        -2.315488        -0.910793
 C         2.145724        -0.483253         0.998755
 H        -0.487730         1.079748         0.565229
 H        -0.571205         0.853782        -1.021866
 H        -0.768968        -0.588795         0.090436
 H         2.516537         1.740693        -1.101652
 H         1.915700         2.171805         0.586093
 H         4.726425         1.503976         1.620161
 H         3.951470        -0.344737        -1.607341
 H         4.501325        -1.283689        -0.263279
 H         1.184500        -2.203605        -1.597251
 H         1.821175        -0.975944         2.014135
