19
Iteration:  3824
 C        -0.028017         0.168393        -0.160108
 C         1.438946         0.205697        -0.024684
 C         2.443865         1.363496        -0.190143
 C         3.354529         0.382488         0.556903
 O         4.452104         0.816077         1.212149
 C         3.690829        -0.733251        -0.521886
 C         2.224448        -1.089590        -0.319477
 O         1.731144        -2.174380        -0.989742
 C         2.236322        -0.464788         1.143937
 H        -0.643817         0.554826         0.611902
 H        -0.395059         0.627662        -1.060506
 H        -0.265411        -0.974205        -0.206139
 H         2.826914         1.694517        -1.158983
 H         2.327538         2.302014         0.445761
 H         4.025078         1.462148         1.905645
 H         4.214449        -0.384273        -1.488093
 H         4.308101        -1.594512        -0.177058
 H         0.800048        -1.932496        -1.206081
 H         1.857887        -0.587040         2.074524
