19
Iteration:    92
 C        -0.159238         0.232384        -0.030369
 C         1.328888         0.208054         0.061869
 C         2.327934         1.315283         0.034265
 C         3.485972         0.371804         0.478873
 O         4.531791         0.879193         1.255649
 C         3.608293        -0.564751        -0.683175
 C         2.221739        -1.046484        -0.367627
 O         1.813938        -2.157648        -1.077161
 C         2.223146        -0.600571         1.054170
 H        -0.634194         0.734821         0.818454
 H        -0.590494         0.395842        -1.006446
 H        -0.438907        -0.817804         0.146396
 H         2.539936         1.771160        -0.999046
 H         2.090553         2.004879         0.828434
 H         5.348954         0.769590         0.687084
 H         3.906718        -0.320623        -1.753653
 H         4.411421        -1.344485        -0.461601
 H         1.638054        -2.963517        -0.555259
 H         2.067630        -1.320965         1.977507
