19
Iteration:  2421
 C        -0.184136         0.185405        -0.185780
 C         1.418308         0.182156        -0.096421
 C         2.347057         1.430839        -0.011631
 C         3.453116         0.379914         0.546231
 O         4.495738         0.849253         1.347705
 C         3.705360        -0.648380        -0.603694
 C         2.221425        -1.075596        -0.386583
 O         1.778773        -2.312429        -0.901692
 C         2.228487        -0.492592         1.033870
 H        -0.764656         0.774222         0.602715
 H        -0.495891         0.733739        -1.126095
 H        -0.497123        -0.861384        -0.340655
 H         2.718854         1.839867        -0.970304
 H         2.091426         2.257756         0.804009
 H         5.274835         1.069678         0.698753
 H         3.960953        -0.241140        -1.610878
 H         4.394379        -1.404939        -0.236375
 H         0.984341        -2.023946        -1.412071
 H         1.981230        -0.851262         2.029264
