19
Iteration:  4880charge 0 multiplicity 1
 C        -0.076022        -0.029309        -0.218193
 C         1.416280         0.278718        -0.037959
 C         2.409393         1.473198         0.016141
 C         3.445397         0.425595         0.532766
 O         4.550383         0.745152         1.339359
 C         3.696234        -0.533945        -0.578131
 C         2.235068        -1.041652        -0.490908
 O         1.657861        -2.245001        -0.879701
 C         2.189345        -0.494762         0.959696
 H        -0.670237         0.710436         0.295107
 H        -0.351007        -0.147544        -1.269621
 H        -0.276783        -1.055380         0.263731
 H         2.684851         1.908982        -0.888063
 H         2.106483         2.198256         0.818385
 H         4.321804         1.213844         2.238105
 H         3.923001        -0.034916        -1.606020
 H         4.513369        -1.362253        -0.461227
 H         1.108616        -1.948239        -1.614349
 H         1.837778        -0.991902         1.787239
