19
Iteration:  4372charge 0 multiplicity 1
 C        -0.038697         0.234873        -0.246814
 C         1.417625         0.195196        -0.021120
 C         2.334125         1.342747        -0.102047
 C         3.424119         0.382852         0.485552
 O         4.424913         0.704905         1.369047
 C         3.707592        -0.543313        -0.695218
 C         2.250388        -1.040562        -0.435392
 O         1.731294        -2.254374        -0.658878
 C         2.224249        -0.572215         0.999138
 H        -0.433868         0.740956         0.648259
 H        -0.184115         0.996963        -1.041822
 H        -0.658578        -0.603413        -0.463182
 H         2.552021         1.751210        -1.046775
 H         2.133165         2.158621         0.625453
 H         4.660598         1.658358         1.214748
 H         3.795894         0.031712        -1.685307
 H         4.504336        -1.318749        -0.592696
 H         1.678833        -2.344566        -1.637279
 H         1.931450        -0.859557         1.940463
