19
Iteration:  2956charge 0 multiplicity 1
 C        -0.120298         0.207512        -0.118495
 C         1.389784         0.180189        -0.082811
 C         2.342980         1.304232        -0.082738
 C         3.473801         0.404792         0.494286
 O         4.479153         0.871963         1.305250
 C         3.803920        -0.666032        -0.608466
 C         2.211114        -1.019292        -0.472129
 O         1.707728        -2.219005        -0.832047
 C         2.252542        -0.554651         0.979138
 H        -0.411699         1.010059         0.594243
 H        -0.481777         0.348432        -1.132644
 H        -0.642170        -0.651321         0.290129
 H         2.558434         1.719251        -1.084599
 H         2.012197         2.097884         0.603271
 H         4.337943         0.757230         2.252063
 H         4.261298        -0.312228        -1.507405
 H         4.335181        -1.444129        -0.055855
 H         1.130491        -1.916846        -1.586922
 H         1.982533        -0.908038         1.865258
