19
Iteration:   131charge 0 multiplicity 1
 C         0.020228         0.164546        -0.034399
 C         1.454686         0.162125         0.017455
 C         2.281256         1.368716         0.093113
 C         3.413299         0.453580         0.486538
 O         4.529039         0.895289         1.213825
 C         3.673017        -0.536127        -0.713692
 C         2.265108        -1.074324        -0.444593
 O         1.553195        -2.199586        -0.940202
 C         2.282672        -0.647726         0.959162
 H        -0.487326         1.005971         0.450861
 H        -0.415916         0.156719        -1.045074
 H        -0.204019        -0.784804         0.491598
 H         2.355113         1.975268        -0.774867
 H         1.969362         2.097371         0.872486
 H         4.672664         0.342642         2.009692
 H         3.889934         0.010840        -1.574982
 H         4.352578        -1.245528        -0.317519
 H         2.184990        -2.689674        -1.538940
 H         1.992136        -1.252639         1.796078
