19
Iteration:  2078
 C        -0.165662         0.329462        -0.230518
 C         1.317939         0.213543        -0.128004
 C         2.357685         1.415614        -0.103685
 C         3.371043         0.368318         0.537131
 O         4.568730         0.639772         1.282954
 C         3.692694        -0.619222        -0.617093
 C         2.297492        -1.042879        -0.355055
 O         1.780706        -2.337606        -0.824810
 C         2.165841        -0.394957         1.047273
 H        -0.442531         0.854744         0.800987
 H        -0.209193         0.904841        -1.223673
 H        -0.734672        -0.653852        -0.382616
 H         2.683056         1.953055        -0.959852
 H         1.964249         2.194549         0.671440
 H         4.168430         1.001410         2.050213
 H         3.870985        -0.122126        -1.587377
 H         4.498579        -1.300358        -0.302483
 H         2.651870        -2.726626        -1.120796
 H         1.826496        -0.759952         2.039020
