19
Iteration:  3755charge 0 multiplicity 1
 C        -0.126356         0.377843        -0.317618
 C         1.403331         0.179182         0.005187
 C         2.387510         1.366616         0.001538
 C         3.432561         0.374340         0.508573
 O         4.474662         0.789031         1.222327
 C         3.677360        -0.599925        -0.742173
 C         2.338334        -1.125139        -0.274836
 O         1.754470        -2.314935        -0.762974
 C         2.153998        -0.558925         1.096787
 H        -0.557326         1.378718        -0.013618
 H        -0.256945         0.419585        -1.441199
 H        -0.782527        -0.488019        -0.007789
 H         2.589692         1.813455        -0.928474
 H         2.118648         2.193164         0.750464
 H         4.303249         1.248239         2.061123
 H         3.930132        -0.332134        -1.821088
 H         4.527172        -1.358571        -0.538023
 H         1.783615        -2.151467        -1.725955
 H         1.793994        -1.057255         2.112036
