19
Iteration:  2133
 C        -0.045875         0.240887        -0.185982
 C         1.440832         0.133633        -0.067506
 C         2.404652         1.283327        -0.087422
 C         3.468586         0.396421         0.544724
 O         4.453833         0.920934         1.331080
 C         3.833416        -0.680171        -0.510183
 C         2.302594        -1.096407        -0.400176
 O         1.501228        -2.153191        -1.030642
 C         2.230681        -0.576954         1.005308
 H        -0.513024         1.263896         0.257849
 H        -0.377327         0.173135        -1.294222
 H        -0.535744        -0.571337         0.409950
 H         2.656098         1.891593        -0.942659
 H         1.960386         2.073981         0.635232
 H         3.993560         1.725101         1.521280
 H         4.333361        -0.403997        -1.452518
 H         4.430787        -1.491048        -0.113386
 H         1.402744        -2.831055        -0.349316
 H         2.062404        -1.092920         2.043886
