19
Iteration:  2215charge 0 multiplicity 1
 C        -0.093253         0.329499        -0.349133
 C         1.409860         0.170424        -0.094941
 C         2.328199         1.362697        -0.036245
 C         3.372484         0.432245         0.537581
 O         4.467766         0.701731         1.366893
 C         3.674624        -0.607624        -0.650347
 C         2.307978        -1.062328        -0.363805
 O         1.743402        -2.258627        -0.778096
 C         2.181587        -0.465247         1.032498
 H        -0.541225         0.915464         0.578906
 H        -0.434218         0.730839        -1.288830
 H        -0.637173        -0.679131        -0.320478
 H         2.381341         1.940908        -0.990936
 H         2.126200         1.901652         0.835645
 H         5.167314         0.957297         0.665072
 H         3.893179        -0.150685        -1.643494
 H         4.459657        -1.365078        -0.283087
 H         2.403166        -2.947747        -0.800162
 H         1.932563        -0.881709         2.045355
