19
Iteration:  4802
 C        -0.126322         0.343666        -0.077628
 C         1.384537         0.175207        -0.116368
 C         2.406156         1.272695        -0.031317
 C         3.378569         0.274914         0.578376
 O         4.409431         0.891275         1.330987
 C         3.670775        -0.567172        -0.653092
 C         2.266643        -1.093988        -0.456964
 O         1.839612        -2.248940        -0.872219
 C         2.265404        -0.681342         0.962554
 H        -0.559103         0.803271         0.836637
 H        -0.167883         1.214454        -0.769562
 H        -0.883362        -0.499152        -0.385295
 H         2.613369         1.982657        -0.813614
 H         2.088060         1.770564         0.922650
 H         4.241802         1.916246         1.383284
 H         3.941560         0.117446        -1.563199
 H         4.410656        -1.382090        -0.419650
 H         1.760949        -2.227294        -1.837522
 H         1.937565        -1.245112         1.959745
