19
Iteration:  3562
 C        -0.025010         0.091734        -0.299300
 C         1.416401         0.161401         0.059356
 C         2.385440         1.380524        -0.043010
 C         3.447976         0.390613         0.553879
 O         4.552945         0.842718         1.293442
 C         3.697211        -0.604663        -0.672193
 C         2.286835        -1.046287        -0.379339
 O         1.510203        -2.163591        -0.821167
 C         2.258994        -0.564493         1.030556
 H        -0.489012         0.927921         0.212696
 H        -0.155328         0.343566        -1.400379
 H        -0.603871        -0.797029         0.091788
 H         2.655437         1.843041        -1.034442
 H         2.089955         2.096709         0.611704
 H         4.358563         1.625328         1.742418
 H         3.957420        -0.252043        -1.667480
 H         4.331775        -1.410886        -0.260059
 H         1.638128        -2.537450        -1.689163
 H         1.904906        -0.983221         1.963058
