19
Iteration:  2268
 C        -0.090295         0.267253        -0.154378
 C         1.458134         0.153711        -0.075858
 C         2.405729         1.287658        -0.092114
 C         3.414802         0.323063         0.535064
 O         4.393578         0.987365         1.282626
 C         3.755978        -0.700399        -0.638158
 C         2.252028        -1.069840        -0.359939
 O         1.728887        -2.197426        -0.962148
 C         2.224230        -0.550448         1.053160
 H        -0.584168         0.701244         0.776062
 H        -0.205801         0.822191        -1.036496
 H        -0.707215        -0.616738        -0.361066
 H         2.635664         1.648263        -1.085054
 H         2.148453         2.101462         0.537371
 H         4.523968         0.474801         2.122209
 H         4.110010        -0.102885        -1.477016
 H         4.471296        -1.434287        -0.369157
 H         1.002318        -2.481189        -0.410546
 H         1.914835        -0.850125         2.070930
