19
Iteration:  2152charge 0 multiplicity 1
 C        -0.109523         0.095115        -0.282163
 C         1.416923         0.208933        -0.076476
 C         2.487690         1.374061        -0.030726
 C         3.429240         0.335243         0.515654
 O         4.461010         0.921716         1.369718
 C         3.771562        -0.747624        -0.581010
 C         2.348388        -1.118000        -0.373350
 O         1.493370        -2.035945        -0.944620
 C         2.254210        -0.587619         1.037753
 H        -0.443489         0.930828         0.178166
 H        -0.346226        -0.021660        -1.359503
 H        -0.561866        -0.698466         0.382818
 H         2.562634         1.939554        -1.019445
 H         2.262204         2.218330         0.696337
 H         4.455465         1.907615         1.379821
 H         4.050224        -0.383265        -1.544976
 H         4.551982        -1.502739        -0.219571
 H         1.557914        -2.946202        -0.682654
 H         1.768922        -0.904446         1.987819
