19
Iteration:  4114
 C        -0.131199         0.202557        -0.290040
 C         1.428427         0.197349         0.001191
 C         2.415929         1.364282        -0.099658
 C         3.474199         0.393633         0.557885
 O         4.461482         0.925661         1.327890
 C         3.667051        -0.688294        -0.588108
 C         2.189289        -1.037729        -0.370556
 O         1.711430        -2.191787        -0.983372
 C         2.206045        -0.534267         1.082830
 H        -0.499420         1.100842         0.242757
 H        -0.139349         0.119876        -1.389538
 H        -0.545225        -0.686805         0.098050
 H         2.599771         1.770488        -1.102253
 H         2.386514         2.055600         0.680471
 H         5.091936         0.185764         1.403514
 H         4.112824        -0.376871        -1.596488
 H         4.204295        -1.653458        -0.191766
 H         1.442822        -2.772285        -0.229112
 H         1.890469        -0.813212         2.162977
