19
Iteration:  1649charge 0 multiplicity 1
 C        -0.033466         0.247786        -0.238710
 C         1.433214         0.192808        -0.037882
 C         2.386956         1.381840        -0.064268
 C         3.405071         0.307232         0.568221
 O         4.500156         0.778252         1.349374
 C         3.668905        -0.563129        -0.656331
 C         2.243725        -0.996757        -0.439214
 O         1.712050        -2.280382        -0.842575
 C         2.257446        -0.560228         0.980215
 H        -0.517346         0.950983         0.472463
 H        -0.402375         0.660622        -1.197885
 H        -0.430376        -0.749259        -0.038716
 H         2.538586         1.835201        -1.044238
 H         2.111645         2.070213         0.699473
 H         4.221085         1.554884         1.950964
 H         4.002449        -0.134230        -1.620939
 H         4.307678        -1.444712        -0.463367
 H         0.752414        -2.242906        -0.968137
 H         2.001249        -1.159538         1.875947
