19
Iteration:  1226charge 0 multiplicity 1
 C        -0.074759         0.109106        -0.117545
 C         1.386995         0.181196        -0.108494
 C         2.328074         1.379008         0.017972
 C         3.428067         0.362381         0.506343
 O         4.497787         0.814190         1.325216
 C         3.722797        -0.595548        -0.648494
 C         2.293275        -1.021997        -0.420516
 O         1.664060        -2.216319        -0.825565
 C         2.228996        -0.537534         0.967709
 H        -0.399799         0.537929         0.835902
 H        -0.503366         0.628745        -0.968985
 H        -0.367102        -0.956229        -0.084518
 H         2.574638         2.060921        -0.861815
 H         2.082387         2.123702         0.847561
 H         4.726245         1.696042         1.005971
 H         3.960984        -0.335440        -1.677402
 H         4.527316        -1.305716        -0.439332
 H         1.413167        -2.166524        -1.792091
 H         1.946712        -0.945383         1.901541
