19
Iteration:  4897charge 0 multiplicity 1
 C        -0.077683        -0.067615        -0.282192
 C         1.375162         0.187935        -0.029737
 C         2.358695         1.525224        -0.029103
 C         3.421860         0.431798         0.583474
 O         4.551966         0.652495         1.402080
 C         3.737466        -0.484612        -0.737398
 C         2.296920        -0.990883        -0.422515
 O         1.536617        -2.188383        -0.848216
 C         2.331489        -0.514434         1.046341
 H        -0.874439         0.560545         0.182907
 H        -0.204783        -0.076140        -1.398145
 H        -0.273851        -1.080880        -0.003438
 H         2.643544         2.068618        -1.051434
 H         2.001071         2.241573         0.714661
 H         4.360070         1.590098         1.705072
 H         4.178325        -0.146952        -1.660133
 H         4.219505        -1.186543        -0.167857
 H         1.325872        -2.119322        -1.793818
 H         2.194175        -0.901682         2.190031
