19
Iteration:  1112
 C        -0.101947        -0.046923        -0.007897
 C         1.416341         0.195429        -0.093120
 C         2.352972         1.427145        -0.123987
 C         3.466201         0.416527         0.494264
 O         4.451219         0.800068         1.436193
 C         3.705488        -0.634702        -0.632375
 C         2.277935        -0.978591        -0.447887
 O         1.609164        -2.097836        -0.887847
 C         2.292502        -0.463213         0.958748
 H        -0.667048         0.438373         0.808040
 H        -0.726239         0.159956        -0.959157
 H        -0.160583        -1.134918         0.181739
 H         2.679072         2.054927        -1.077165
 H         1.990796         2.095234         0.610233
 H         5.313018         0.748177         1.085033
 H         4.055097        -0.407601        -1.676175
 H         4.212180        -1.560942        -0.326849
 H         1.705573        -2.237993        -1.865844
 H         2.025394        -0.939182         1.800659
