19
Iteration:  1701
 C        -0.008911         0.234266        -0.319708
 C         1.408540         0.113905         0.057072
 C         2.329869         1.307034        -0.009449
 C         3.413299         0.368205         0.513563
 O         4.526445         0.898424         1.212461
 C         3.719597        -0.619132        -0.532467
 C         2.223033        -1.039542        -0.326193
 O         1.649573        -2.138723        -0.968630
 C         2.247909        -0.558857         1.109984
 H        -0.604007         0.972118         0.107626
 H        -0.156404         0.294153        -1.412770
 H        -0.278580        -0.823236        -0.042390
 H         2.579541         1.642240        -1.015953
 H         1.980281         2.024399         0.845032
 H         4.878357         0.130508         1.763475
 H         3.954465        -0.114457        -1.479151
 H         4.364006        -1.408353        -0.117688
 H         0.826471        -1.946248        -1.404157
 H         1.955069        -1.159015         2.058455
