19
Iteration:  2073
 C        -0.115293         0.311465        -0.224225
 C         1.344652         0.199629        -0.115680
 C         2.343005         1.442863        -0.076355
 C         3.380877         0.395417         0.520005
 O         4.560956         0.616080         1.287468
 C         3.697967        -0.589024        -0.624621
 C         2.255976        -1.027037        -0.366137
 O         1.780349        -2.340577        -0.791850
 C         2.154717        -0.410984         1.014257
 H        -0.528495         0.818241         0.580500
 H        -0.213065         0.965460        -1.090795
 H        -0.601709        -0.635951        -0.474178
 H         2.712243         1.921653        -1.058881
 H         1.765207         2.046763         0.602410
 H         4.309216         1.103997         2.141551
 H         3.879100        -0.170890        -1.618481
 H         4.373007        -1.383697        -0.239631
 H         2.518024        -2.782530        -1.196780
 H         1.896483        -0.739167         2.016065
