19
Iteration:  1929
 C        -0.101555         0.297976        -0.100365
 C         1.398029         0.259756        -0.122180
 C         2.379564         1.449604        -0.119286
 C         3.365245         0.367267         0.529296
 O         4.406474         0.645332         1.363820
 C         3.771435        -0.577568        -0.657125
 C         2.324502        -1.071595        -0.473580
 O         1.794919        -2.335560        -0.850311
 C         2.190569        -0.529472         0.950077
 H        -0.289951         1.364737         0.031991
 H        -0.592262         0.005957        -1.025837
 H        -0.345518        -0.392715         0.778119
 H         2.758149         2.158077        -0.959434
 H         2.176174         2.029592         0.764086
 H         4.241776         1.441210         1.826552
 H         3.963297        -0.149511        -1.660218
 H         4.531324        -1.273087        -0.351361
 H         0.877329        -2.376366        -0.565024
 H         1.842204        -0.702240         1.973704
