19
Iteration:  2828charge 0 multiplicity 1
 C        -0.127970         0.276646        -0.124186
 C         1.382425         0.113147        -0.083156
 C         2.338700         1.410755        -0.086701
 C         3.437280         0.368083         0.489673
 O         4.372242         0.734832         1.456240
 C         3.763807        -0.529316        -0.740757
 C         2.309078        -1.078527        -0.415845
 O         1.747236        -2.328346        -0.745784
 C         2.261369        -0.483061         0.962904
 H        -0.469668         0.838413         0.662589
 H        -0.461026         0.929507        -0.903039
 H        -0.828898        -0.569874        -0.147787
 H         2.646389         1.957816        -1.027915
 H         1.979675         2.152628         0.597961
 H         5.232210         1.081688         1.002045
 H         3.687546        -0.204552        -1.759264
 H         4.621369        -1.220875        -0.829860
 H         1.658530        -2.148887        -1.684733
 H         1.956975        -0.836403         1.834814
