19
Iteration:  4745
 C        -0.083767        -0.044138        -0.324159
 C         1.369364         0.194920         0.003490
 C         2.362135         1.341380         0.036257
 C         3.433938         0.441305         0.548989
 O         4.511686         0.652998         1.309247
 C         3.636229        -0.565545        -0.698517
 C         2.348003        -0.985832        -0.369825
 O         1.665931        -2.080231        -0.848070
 C         2.268351        -0.457075         1.084751
 H        -0.698520         0.346237         0.543432
 H        -0.556798         0.491056        -1.187994
 H        -0.394585        -1.077167        -0.411529
 H         2.398829         1.796397        -0.961421
 H         2.072787         2.156137         0.639430
 H         4.604612         1.562428         1.570696
 H         3.998380         0.042951        -1.667094
 H         4.423415        -1.214576        -0.395771
 H         1.386068        -1.993596        -1.781227
 H         2.228730        -0.950109         2.027958
