19
Iteration:  2203charge 0 multiplicity 1
 C        -0.143483         0.237136        -0.344005
 C         1.339435         0.201094        -0.099474
 C         2.328890         1.411258        -0.061871
 C         3.417712         0.363207         0.499042
 O         4.519634         0.674751         1.340020
 C         3.713514        -0.584000        -0.627204
 C         2.284597        -1.095690        -0.251242
 O         1.718329        -2.206370        -0.823002
 C         2.169963        -0.465127         1.105946
 H        -0.737967         1.074018         0.315552
 H        -0.152590         0.632244        -1.360900
 H        -0.607314        -0.771240        -0.275421
 H         2.692090         1.978806        -0.954638
 H         1.922678         2.152271         0.534494
 H         5.194779         1.199724         0.972125
 H         3.873568        -0.156229        -1.659199
 H         4.593295        -1.226501        -0.369599
 H         2.442767        -2.835093        -1.021832
 H         1.948448        -0.933672         2.022023
