19
Iteration:   887charge 0 multiplicity 1
 C        -0.220051         0.187152         0.005730
 C         1.295513         0.086492         0.007392
 C         2.276589         1.404059         0.037012
 C         3.475901         0.399051         0.566782
 O         4.540899         0.847413         1.255560
 C         3.668163        -0.531801        -0.666387
 C         2.229667        -0.990840        -0.489872
 O         1.804854        -2.162850        -1.096208
 C         2.324005        -0.629428         1.031043
 H        -0.438739         1.083039         0.689477
 H        -0.549944         0.637797        -0.963789
 H        -0.775603        -0.693316         0.250952
 H         2.527907         1.792347        -0.989845
 H         1.801460         2.148031         0.797373
 H         5.222890         0.157469         1.587299
 H         3.839320        -0.211358        -1.670551
 H         4.363629        -1.322252        -0.284291
 H         2.024695        -2.941529        -0.585614
 H         2.168123        -1.261140         1.825553
