19
Iteration:  3164
 C        -0.088535         0.353180        -0.252685
 C         1.434409         0.264513        -0.067791
 C         2.367371         1.440968        -0.020084
 C         3.373771         0.406478         0.522540
 O         4.523240         0.705465         1.244475
 C         3.641969        -0.590421        -0.694410
 C         2.195116        -1.128454        -0.372763
 O         1.801181        -2.354463        -0.718195
 C         2.183393        -0.538934         0.956496
 H        -0.509321         1.125081         0.496347
 H        -0.409200         0.461886        -1.299567
 H        -0.542259        -0.623342         0.120876
 H         2.499220         1.854083        -0.962748
 H         1.944705         2.249305         0.713333
 H         4.386354         1.079948         2.136785
 H         3.750539        -0.024910        -1.656096
 H         4.482460        -1.228975        -0.315843
 H         2.365631        -2.629330        -1.433439
 H         1.866589        -0.947948         2.042013
