19
Iteration:  3972charge 0 multiplicity 1
 C        -0.197142         0.171714        -0.257564
 C         1.343055         0.266424        -0.110527
 C         2.454677         1.321221        -0.007466
 C         3.477420         0.358958         0.510506
 O         4.584221         0.895645         1.206959
 C         3.713493        -0.721276        -0.494779
 C         2.215840        -1.116237        -0.350352
 O         1.649128        -2.233409        -0.903987
 C         2.211215        -0.390587         1.095587
 H        -0.681938         0.693540         0.614047
 H        -0.576132         0.559514        -1.221807
 H        -0.363104        -0.864292        -0.256934
 H         2.604913         1.898211        -1.020736
 H         2.246694         2.049690         0.768166
 H         4.265573         1.257310         2.055487
 H         4.270519        -0.327980        -1.331723
 H         4.303143        -1.591259        -0.080529
 H         1.937325        -2.577807        -1.780027
 H         1.949881        -0.942712         1.897501
