19
Iteration:  4221charge 0 multiplicity 1
 C        -0.128693         0.183492        -0.272398
 C         1.369175         0.194341        -0.171148
 C         2.407339         1.449886        -0.114479
 C         3.489382         0.389636         0.579988
 O         4.531267         0.788267         1.402991
 C         3.690726        -0.631289        -0.639853
 C         2.203327        -0.980261        -0.397741
 O         1.725125        -2.302820        -0.807704
 C         2.165489        -0.462229         0.988507
 H        -0.514632         0.784128         0.612988
 H        -0.443045         0.841420        -1.140575
 H        -0.517186        -0.802248        -0.312271
 H         2.648441         2.169689        -0.951194
 H         1.729642         2.082566         0.555420
 H         5.274088         0.171818         1.166192
 H         3.928381        -0.209823        -1.594052
 H         4.301909        -1.458251        -0.475343
 H         1.427329        -2.752843         0.023598
 H         2.016121        -0.885032         2.034399
