19
Iteration:  1882
 C        -0.062484         0.191393        -0.310477
 C         1.396590         0.234464         0.102768
 C         2.448256         1.364971         0.022981
 C         3.435466         0.360385         0.542075
 O         4.520284         0.873130         1.227176
 C         3.663864        -0.601600        -0.616625
 C         2.246589        -1.099037        -0.370156
 O         1.663437        -2.218082        -0.954313
 C         2.203011        -0.587624         1.053619
 H        -0.618631         1.158798        -0.066194
 H        -0.007594         0.247360        -1.384741
 H        -0.490551        -0.721068         0.027890
 H         2.735490         1.590238        -1.116487
 H         2.275090         2.314296         0.629966
 H         4.379159         0.819053         2.181017
 H         4.018529        -0.116243        -1.584450
 H         4.461655        -1.375841        -0.364530
 H         0.708649        -2.349815        -0.698373
 H         1.939493        -0.973578         2.035171
