19
Iteration:  1828charge 0 multiplicity 1
 C        -0.127138         0.263580        -0.272196
 C         1.432617         0.182152        -0.019995
 C         2.379690         1.415403        -0.009564
 C         3.422678         0.388325         0.543778
 O         4.586973         0.873610         1.158884
 C         3.696024        -0.701417        -0.486082
 C         2.275542        -1.123242        -0.378020
 O         1.686810        -2.265974        -0.997696
 C         2.161470        -0.527046         1.127707
 H        -0.633682         0.525084         0.744720
 H        -0.281595         0.989928        -1.060276
 H        -0.483892        -0.753077        -0.501949
 H         2.488684         2.072866        -0.900565
 H         2.063898         2.148043         0.691818
 H         4.548616         0.698870         2.158218
 H         4.133543        -0.304739        -1.439302
 H         4.530071        -1.231286         0.017242
 H         0.758530        -2.178895        -1.329885
 H         1.924851        -1.035730         2.081444
