19
Iteration:  4071
 C        -0.030025         0.203003        -0.237028
 C         1.416357         0.270771        -0.073710
 C         2.416034         1.517626        -0.096328
 C         3.383949         0.397228         0.506493
 O         4.392207         0.650847         1.358795
 C         3.647180        -0.542256        -0.592552
 C         2.258164        -1.049983        -0.435262
 O         1.806132        -2.376569        -0.803106
 C         2.221882        -0.462427         1.016282
 H        -0.385076         1.043233         0.385388
 H        -0.265327         0.251734        -1.301379
 H        -0.506259        -0.669654         0.197024
 H         2.744897         1.910747        -1.096389
 H         1.903533         2.231496         0.501580
 H         5.238330         0.664770         0.778559
 H         3.869129         0.019968        -1.543569
 H         4.427881        -1.270297        -0.167387
 H         0.907184        -2.364392        -0.387393
 H         1.446482        -0.792878         1.810706
