19
Iteration:  3120
 C        -0.115456         0.165020        -0.142372
 C         1.405767         0.210699        -0.125733
 C         2.304700         1.365402        -0.182791
 C         3.448507         0.413359         0.542311
 O         4.549263         0.729127         1.361142
 C         3.713815        -0.643116        -0.616043
 C         2.319267        -1.054314        -0.408080
 O         1.707209        -2.197668        -0.790306
 C         2.217243        -0.492768         0.950407
 H        -0.594291         1.170003         0.242656
 H        -0.555299         0.119887        -1.161461
 H        -0.584231        -0.642200         0.500113
 H         2.647944         1.888957        -1.104685
 H         2.261900         2.249348         0.656260
 H         4.120436         1.351315         2.025458
 H         4.057456        -0.281063        -1.630754
 H         4.281303        -1.530668        -0.211708
 H         1.219463        -2.113597        -1.607425
 H         1.838059        -0.864428         2.064716
