19
Iteration:  2293charge 0 multiplicity 1
 C        -0.059216         0.149431        -0.150730
 C         1.463229         0.221683        -0.002218
 C         2.331962         1.407394        -0.108349
 C         3.445432         0.430389         0.502244
 O         4.530041         0.914248         1.277006
 C         3.663734        -0.760362        -0.507883
 C         2.200605        -1.084480        -0.321068
 O         1.736676        -2.234717        -1.072720
 C         2.218765        -0.503845         1.053336
 H        -0.617570         0.672771         0.682350
 H        -0.316073         0.565901        -1.148410
 H        -0.527915        -0.906544        -0.095566
 H         2.647074         1.613525        -1.139346
 H         1.953925         2.263196         0.305754
 H         4.256818         0.840990         2.180984
 H         4.111775        -0.476726        -1.465210
 H         4.422669        -1.435412         0.023291
 H         0.818277        -2.008278        -1.239766
 H         2.130639        -0.892171         2.153439
