19
Iteration:  4751charge 0 multiplicity 1
 C        -0.088924        -0.043988        -0.323129
 C         1.424091         0.203287        -0.000517
 C         2.324746         1.425730         0.025611
 C         3.442791         0.441993         0.475391
 O         4.499098         0.631325         1.328642
 C         3.685616        -0.530859        -0.669622
 C         2.284726        -0.986889        -0.365392
 O         1.640074        -2.126192        -0.853249
 C         2.298769        -0.459303         1.092403
 H        -0.729253         0.129970         0.543588
 H        -0.596569         0.570281        -1.069878
 H        -0.282289        -1.133041        -0.411979
 H         2.466106         1.935811        -0.971875
 H         1.937957         2.251431         0.713740
 H         4.662591         1.523981         1.557466
 H         4.090153        -0.080060        -1.578477
 H         4.357313        -1.360222        -0.290690
 H         1.447081        -2.028035        -1.815561
 H         2.272471        -1.065780         2.025479
