19
Iteration:  4851
 C        -0.140505         0.305662        -0.138386
 C         1.358024         0.116359        -0.071253
 C         2.313832         1.323169         0.014324
 C         3.396464         0.392392         0.568264
 O         4.461058         0.862979         1.274642
 C         3.732152        -0.602116        -0.605914
 C         2.283255        -1.091572        -0.463073
 O         1.847380        -2.241825        -0.962791
 C         2.274347        -0.622628         1.034976
 H        -0.331787         1.227916         0.492913
 H        -0.542089         0.540165        -1.167885
 H        -0.698299        -0.472285         0.331375
 H         2.637311         1.734278        -0.998507
 H         1.949570         2.085639         0.755715
 H         4.320564         0.976031         2.177670
 H         3.961243        -0.258800        -1.545838
 H         4.363192        -1.397172        -0.277948
 H         1.283412        -1.943763        -1.706053
 H         1.833646        -0.864040         1.994784
