19
Iteration:  2487charge 0 multiplicity 1
 C        -0.091145         0.244675        -0.129274
 C         1.393492         0.169353        -0.066697
 C         2.358789         1.262793        -0.059955
 C         3.479672         0.373510         0.476831
 O         4.477527         1.029778         1.333899
 C         3.722416        -0.665676        -0.668287
 C         2.298442        -1.096628        -0.344949
 O         1.695972        -2.205700        -0.906095
 C         2.193314        -0.626262         1.060855
 H        -0.656958         0.744981         0.692443
 H        -0.495827         0.876183        -0.886584
 H        -0.398983        -0.785061        -0.306238
 H         2.554629         1.685786        -1.009675
 H         2.201688         2.115288         0.668923
 H         4.527256         0.654407         2.168807
 H         3.828317        -0.167907        -1.657923
 H         4.310500        -1.577626        -0.577449
 H         1.486382        -2.002448        -1.835408
 H         1.924297        -1.236096         1.797823
