19
Iteration:  3145
 C        -0.077580         0.231959        -0.138269
 C         1.414618         0.224345        -0.151373
 C         2.427544         1.488848        -0.079521
 C         3.383048         0.458955         0.507657
 O         4.514713         0.665053         1.256674
 C         3.677494        -0.550223        -0.631313
 C         2.194830        -1.074133        -0.410423
 O         1.773076        -2.412327        -0.753764
 C         2.128928        -0.443148         1.011867
 H        -0.526237         1.116673         0.222097
 H        -0.542544         0.239348        -1.198206
 H        -0.500932        -0.640397         0.481430
 H         3.135833         2.130560        -0.777454
 H         2.090653         2.236480         0.738081
 H         4.134710         0.940581         2.056242
 H         3.929011        -0.020901        -1.583490
 H         4.493110        -1.216700        -0.379326
 H         1.973945        -2.638814        -1.675707
 H         1.735454        -0.811458         1.884237
