19
Iteration:    11charge 0 multiplicity 1
 C        -0.039277         0.138196        -0.044541
 C         1.399402         0.174860         0.057982
 C         2.380680         1.321818         0.093217
 C         3.412178         0.386064         0.454024
 O         4.517079         0.817118         1.195459
 C         3.641102        -0.453266        -0.716978
 C         2.206343        -1.028189        -0.458548
 O         1.569791        -2.180494        -0.909973
 C         2.315571        -0.616778         0.946088
 H        -0.532966         0.530646         0.859493
 H        -0.468484         0.494430        -1.030972
 H        -0.221230        -0.948141        -0.022357
 H         2.659949         1.779390        -0.852751
 H         2.170431         1.994503         1.015995
 H         4.303921         1.631434         1.707203
 H         4.158939        -0.027808        -1.615237
 H         4.351650        -1.276712        -0.291783
 H         2.318070        -2.808437        -1.072918
 H         2.380594        -1.195665         1.869718
