19
Iteration:  3807
 C        -0.152579         0.130750        -0.176498
 C         1.414616         0.253243        -0.098350
 C         2.442975         1.387587        -0.163511
 C         3.488894         0.369163         0.487921
 O         4.524030         0.809590         1.356246
 C         3.740802        -0.703666        -0.545786
 C         2.262792        -1.044977        -0.360300
 O         1.694878        -2.220459        -0.870071
 C         2.166538        -0.486172         0.968638
 H        -0.473139         0.803771         0.673150
 H        -0.609480         0.576094        -1.109495
 H        -0.568555        -0.837888        -0.138891
 H         2.537243         1.876339        -1.179939
 H         2.098593         2.116338         0.552146
 H         4.173846         1.570154         1.932882
 H         4.003923        -0.467506        -1.555494
 H         4.498591        -1.402596        -0.138923
 H         0.742512        -2.066971        -1.011192
 H         2.049037        -1.040314         1.967702
