19
Iteration:   538
 C        -0.072673         0.099629        -0.095804
 C         1.453127         0.154606         0.047855
 C         2.406633         1.397759        -0.038388
 C         3.442850         0.396418         0.554191
 O         4.531016         0.810884         1.260127
 C         3.593302        -0.442557        -0.783435
 C         2.221171        -1.059798        -0.385237
 O         1.686996        -2.219089        -0.999519
 C         2.183868        -0.525550         1.102133
 H        -0.537917         1.010249         0.330461
 H        -0.391840         0.279665        -1.116450
 H        -0.439653        -0.781528         0.413504
 H         2.722441         1.688875        -1.035731
 H         2.104431         2.139187         0.679707
 H         4.625319         0.289050         2.035309
 H         3.721199         0.083433        -1.716868
 H         4.382455        -1.124427        -0.644705
 H         2.214817        -3.037171        -0.806781
 H         1.683239        -0.827523         1.987877
