19
Iteration:  4367charge 0 multiplicity 1
 C        -0.069947         0.228856        -0.231371
 C         1.414421         0.168671        -0.009273
 C         2.411313         1.403098        -0.107075
 C         3.405965         0.385570         0.471931
 O         4.422607         0.701113         1.383887
 C         3.734914        -0.513700        -0.735821
 C         2.235483        -1.051925        -0.438662
 O         1.704867        -2.278120        -0.663969
 C         2.225096        -0.550725         1.008575
 H        -0.443092         0.717164         0.682746
 H        -0.183520         0.915028        -1.080209
 H        -0.608094        -0.791155        -0.470562
 H         2.491355         1.759553        -1.230466
 H         2.215445         2.211275         0.599623
 H         4.597555         1.685700         1.393467
 H         3.912230         0.044595        -1.615783
 H         4.420610        -1.355519        -0.577034
 H         1.728023        -2.397890        -1.622450
 H         1.854354        -0.977410         2.035158
