19
Iteration:   141charge 0 multiplicity 1
 C         0.018603         0.098960        -0.051957
 C         1.483562         0.142626        -0.009223
 C         2.304508         1.453530         0.012369
 C         3.444014         0.400559         0.474348
 O         4.506052         0.874230         1.248683
 C         3.628985        -0.516767        -0.717813
 C         2.284833        -1.079612        -0.387032
 O         1.533193        -2.169149        -0.926042
 C         2.327773        -0.642935         1.046884
 H        -0.300575         0.981142         0.511177
 H        -0.288266         0.092742        -1.122954
 H        -0.517559        -0.740116         0.399748
 H         2.325594         2.072746        -0.868912
 H         2.005279         1.940918         0.984726
 H         4.178073         0.501810         2.058515
 H         3.668550        -0.088390        -1.691219
 H         4.460015        -1.163207        -0.728041
 H         1.975743        -2.369371        -1.768601
 H         2.269428        -1.350720         1.769234
