19
Iteration:    74charge 0 multiplicity 1
 C        -0.036100         0.167963        -0.015118
 C         1.428140         0.119057         0.149519
 C         2.291972         1.479095        -0.030897
 C         3.341724         0.438571         0.538067
 O         4.491734         0.778545         1.239474
 C         3.593073        -0.580570        -0.672691
 C         2.252175        -1.056906        -0.420280
 O         1.790281        -2.242857        -1.075863
 C         2.306171        -0.609323         1.060663
 H        -0.443206         0.704939         0.866165
 H        -0.122211         0.739964        -0.997941
 H        -0.639637        -0.736769        -0.216282
 H         2.463099         1.703820        -1.079093
 H         2.008253         2.248688         0.769607
 H         5.052615         1.292611         0.595964
 H         3.967385         0.026674        -1.522791
 H         4.415327        -1.313020        -0.698144
 H         0.975573        -2.455731        -0.588130
 H         2.000539        -0.854582         2.058719
