19
Iteration:  3073
 C        -0.046127         0.183505        -0.288377
 C         1.458879         0.094396         0.015647
 C         2.472785         1.323579        -0.029153
 C         3.492492         0.370390         0.575076
 O         4.533153         1.023312         1.221828
 C         3.705553        -0.749233        -0.619952
 C         2.221787        -1.124882        -0.294948
 O         1.608553        -2.147549        -0.950816
 C         2.199100        -0.635408         1.145636
 H        -0.548891         0.910325         0.477905
 H        -0.176040         0.616075        -1.280440
 H        -0.654425        -0.687138        -0.244874
 H         2.527489         1.801804        -0.947698
 H         1.917029         2.013798         0.657033
 H         4.076693         1.724248         1.591518
 H         3.785511        -0.316408        -1.640098
 H         4.442841        -1.540609        -0.323114
 H         0.924011        -1.795652        -1.557166
 H         1.710408        -0.863059         2.005356
