19
Iteration:   375charge 0 multiplicity 1
 C        -0.038660         0.259453        -0.103998
 C         1.452202         0.116594         0.020208
 C         2.381291         1.327933         0.099044
 C         3.427764         0.372292         0.481669
 O         4.357533         0.956135         1.312233
 C         3.620931        -0.579315        -0.706379
 C         2.360202        -1.133070        -0.383448
 O         1.604781        -2.172705        -1.014325
 C         2.340896        -0.662214         0.983217
 H        -0.325037         1.006682         0.666814
 H        -0.389414         0.601816        -1.084614
 H        -0.591452        -0.646476         0.188293
 H         2.597068         1.863287        -0.863780
 H         2.180476         1.950255         0.944943
 H         5.241121         1.231924         0.938899
 H         3.687042        -0.139143        -1.783787
 H         4.461558        -1.279036        -0.600590
 H         1.563260        -3.016025        -0.529195
 H         1.949035        -1.096098         1.788374
