19
Iteration:  4054
 C        -0.051947         0.287073        -0.252286
 C         1.377056         0.259559        -0.135829
 C         2.419991         1.395068        -0.071432
 C         3.396996         0.411167         0.518559
 O         4.424058         0.733710         1.439534
 C         3.665389        -0.638716        -0.705449
 C         2.224895        -1.051104        -0.412366
 O         1.829760        -2.309227        -0.755587
 C         2.186978        -0.498636         0.989504
 H        -0.637838         1.006814         0.319765
 H        -0.434083         0.422593        -1.281432
 H        -0.515814        -0.723601         0.051293
 H         2.614262         1.961032        -1.000052
 H         2.194366         2.097043         0.825392
 H         5.135599         1.283346         0.922671
 H         3.908063        -0.344226        -1.733210
 H         4.191468        -1.499570        -0.375121
 H         0.901102        -2.612191        -0.697280
 H         2.265322        -0.930400         1.982362
