19
Iteration:  4267charge 0 multiplicity 1
 C        -0.029438         0.296526        -0.294906
 C         1.419766         0.146753         0.006848
 C         2.377897         1.287013        -0.024599
 C         3.458527         0.291666         0.577488
 O         4.408664         1.039945         1.259507
 C         3.595646        -0.719244        -0.639378
 C         2.238219        -1.099819        -0.365009
 O         1.765696        -2.220693        -0.935887
 C         2.207737        -0.533384         1.133962
 H        -0.298213         1.281779         0.182944
 H        -0.148358         0.462299        -1.381797
 H        -0.572310        -0.556845         0.098917
 H         2.631582         1.786370        -1.023281
 H         2.383316         2.051940         0.748999
 H         5.218802         0.411741         1.458079
 H         3.930865        -0.301054        -1.579976
 H         4.172080        -1.588122        -0.428864
 H         0.805783        -2.135743        -0.840993
 H         2.176328        -1.120554         1.974419
