19
Iteration:  2036
 C        -0.107349         0.199793        -0.378300
 C         1.431221         0.200115        -0.051175
 C         2.440504         1.374009         0.027877
 C         3.466755         0.368066         0.574954
 O         4.513170         0.776511         1.296670
 C         3.757432        -0.585851        -0.676052
 C         2.248723        -1.107469        -0.414356
 O         1.606129        -2.240387        -0.695696
 C         2.159456        -0.506867         1.020256
 H        -0.808943         0.315026         0.517507
 H        -0.240332         0.876823        -1.200164
 H        -0.465969        -0.711465        -0.778569
 H         2.749287         1.985607        -0.823251
 H         2.066128         2.121258         0.757004
 H         4.319824         1.623017         1.684262
 H         4.101146        -0.096139        -1.657915
 H         4.502483        -1.377555        -0.599978
 H         1.362023        -2.201719        -1.631447
 H         2.058322        -0.993416         2.008456
