19
Iteration:    16charge 0 multiplicity 1
 C        -0.016075         0.114270        -0.049752
 C         1.388824         0.224915         0.052596
 C         2.415585         1.323121         0.108951
 C         3.408795         0.378611         0.478115
 O         4.484400         0.820607         1.217603
 C         3.685354        -0.463546        -0.746520
 C         2.201012        -0.999438        -0.523344
 O         1.535527        -2.233124        -0.850751
 C         2.346401        -0.642335         0.947550
 H        -0.607235         0.492995         0.788035
 H        -0.465157         0.608205        -0.890415
 H        -0.186496        -0.964910        -0.104223
 H         2.596116         2.046004        -0.752679
 H         2.234298         2.053860         0.856255
 H         4.208365         1.716612         1.479735
 H         4.116566         0.029074        -1.608563
 H         4.187395        -1.227993        -0.216474
 H         2.307259        -2.634814        -1.321519
 H         2.435194        -1.318994         1.803126
