19
Iteration:  3345charge 0 multiplicity 1
 C        -0.095601         0.248997        -0.248395
 C         1.406394         0.182333        -0.004848
 C         2.368296         1.325926         0.004224
 C         3.388528         0.399401         0.498353
 O         4.533944         0.773630         1.234325
 C         3.715077        -0.565820        -0.664535
 C         2.281798        -1.053982        -0.412938
 O         1.653642        -2.221518        -0.769835
 C         2.219710        -0.560329         1.045068
 H        -0.495787         1.269351         0.002040
 H        -0.421758        -0.092866        -1.294276
 H        -0.711900        -0.412283         0.344399
 H         2.671761         1.783671        -0.851147
 H         2.064900         1.924677         0.856047
 H         4.272582         1.627736         1.749599
 H         4.215779        -0.184983        -1.563327
 H         4.386279        -1.300269        -0.180059
 H         1.821824        -2.279351        -1.747533
 H         2.097399        -1.461889         1.771444
