19
Iteration:  1332charge 0 multiplicity 1
 C        -0.039764         0.361348        -0.304868
 C         1.395552         0.059945         0.009943
 C         2.285166         1.306288         0.183830
 C         3.424171         0.347909         0.481013
 O         4.445847         0.953197         1.202610
 C         3.662569        -0.533906        -0.778838
 C         2.295752        -1.071019        -0.463278
 O         1.752195        -2.272749        -0.719699
 C         2.280865        -0.662262         1.003619
 H        -0.206313         1.253422         0.364977
 H        -0.150055         0.609583        -1.440193
 H        -0.763536        -0.370730        -0.055939
 H         2.581613         2.003685        -0.712769
 H         2.001837         1.799203         1.119157
 H         4.602007         0.406043         1.956749
 H         3.913037         0.029436        -1.683195
 H         4.344108        -1.326386        -0.427441
 H         0.915916        -2.323618        -1.250013
 H         2.256882        -1.239401         1.942383
