19
Iteration:  4806charge 0 multiplicity 1
 C        -0.139696         0.391238        -0.069610
 C         1.410354         0.156023        -0.062773
 C         2.373708         1.272514        -0.021329
 C         3.378386         0.281479         0.566001
 O         4.406211         0.915125         1.334485
 C         3.651330        -0.577248        -0.656435
 C         2.290174        -1.117984        -0.471333
 O         1.860291        -2.255313        -0.892592
 C         2.262886        -0.700339         0.966690
 H        -0.431499         0.890776         0.866385
 H        -0.148312         1.170116        -0.872131
 H        -0.833628        -0.383029        -0.406223
 H         2.586561         1.843844        -0.958781
 H         2.030702         1.845510         0.900740
 H         4.189830         1.799132         1.437541
 H         3.923282         0.009172        -1.426226
 H         4.358235        -1.389525        -0.460245
 H         1.708829        -2.276163        -1.864340
 H         1.944353        -1.118202         1.820665
