19
Iteration:  1700charge 0 multiplicity 1
 C         0.003599         0.230393        -0.321003
 C         1.407227         0.105733         0.045871
 C         2.325513         1.307636        -0.000474
 C         3.419726         0.369981         0.512908
 O         4.522441         0.898803         1.212320
 C         3.715554        -0.631095        -0.532711
 C         2.227367        -1.032241        -0.320378
 O         1.643121        -2.133402        -0.967018
 C         2.255392        -0.558697         1.103053
 H        -0.632153         0.999283         0.091050
 H        -0.182912         0.326203        -1.410656
 H        -0.271287        -0.843039        -0.041685
 H         2.589009         1.632155        -1.006844
 H         1.957399         2.024759         0.863494
 H         4.841922         0.183534         1.788232
 H         3.943887        -0.106465        -1.493017
 H         4.405087        -1.420397        -0.149061
 H         0.809773        -1.946500        -1.381440
 H         1.953728        -1.159065         2.085025
