19
Iteration:  1188
 C        -0.122816         0.406313        -0.287332
 C         1.389877         0.094535         0.126088
 C         2.249283         1.238506         0.097962
 C         3.448093         0.348875         0.470774
 O         4.431056         0.951527         1.393720
 C         3.711882        -0.481819        -0.801694
 C         2.238321        -1.158079        -0.402101
 O         1.682831        -2.360041        -0.804808
 C         2.467001        -0.649657         0.993926
 H        -0.524096         1.325779         0.214251
 H        -0.061672         0.957170        -1.339379
 H        -0.868433        -0.424012        -0.431642
 H         2.358790         1.622615        -0.841894
 H         2.227919         1.897017         0.898813
 H         5.008210         1.593007         0.817159
 H         3.636779         0.155723        -1.719871
 H         4.446068        -1.264839        -0.604735
 H         1.152440        -2.239865        -1.597123
 H         2.533839        -1.254503         1.946670
