19
Iteration:  1667
 C        -0.051824         0.210092        -0.306597
 C         1.394562         0.151901        -0.015367
 C         2.480479         1.393743         0.058687
 C         3.496739         0.408849         0.484681
 O         4.542539         0.953452         1.373169
 C         3.702461        -0.627800        -0.685281
 C         2.246054        -1.124308        -0.403170
 O         1.533691        -2.297318        -0.914656
 C         2.269305        -0.597953         1.007024
 H        -0.727220         0.773777         0.291663
 H        -0.235392         0.470469        -1.351138
 H        -0.535273        -0.798959        -0.170952
 H         2.800358         2.062094        -0.763530
 H         2.175558         2.191093         0.890252
 H         4.036238         1.125177         2.247240
 H         4.019023        -0.199163        -1.661989
 H         4.563130        -1.283273        -0.539721
 H         0.578793        -2.115659        -0.885364
 H         1.971841        -1.072502         2.042573
