19
Iteration:  2049charge 0 multiplicity 1
 C        -0.047757         0.224431        -0.349701
 C         1.387145         0.255245        -0.094013
 C         2.364214         1.475138        -0.024495
 C         3.371065         0.380310         0.513804
 O         4.541789         0.673739         1.315311
 C         3.687856        -0.577173        -0.628845
 C         2.279678        -1.009715        -0.374088
 O         1.638868        -2.309498        -0.684113
 C         2.255457        -0.567396         0.979791
 H        -0.582609         0.525367         0.550440
 H        -0.306264         0.987479        -1.022676
 H        -0.280121        -0.705075        -0.720847
 H         2.662014         1.946999        -1.032053
 H         2.073426         2.138969         0.764531
 H         4.357740         1.563299         1.754196
 H         3.800380        -0.058280        -1.634125
 H         4.427040        -1.239915        -0.204122
 H         1.868448        -2.579425        -1.609985
 H         1.830666        -1.158102         1.913009
