19
Iteration:  1337
 C        -0.056248         0.382774        -0.333474
 C         1.388757         0.071291         0.003625
 C         2.278882         1.317818         0.158077
 C         3.403430         0.294499         0.492169
 O         4.462936         0.927446         1.191380
 C         3.662402        -0.504568        -0.752155
 C         2.289933        -1.059383        -0.448770
 O         1.782910        -2.280676        -0.720327
 C         2.267831        -0.639201         1.046995
 H        -0.442624         1.110560         0.394303
 H        -0.183384         0.527307        -1.387604
 H        -0.787773        -0.465950        -0.033404
 H         2.540398         1.970416        -0.612708
 H         2.057193         2.025165         0.988284
 H         4.770026         0.284134         1.916421
 H         3.863297         0.022276        -1.718218
 H         4.436178        -1.312429        -0.656382
 H         0.988556        -2.142887        -1.238047
 H         2.320874        -1.297302         1.931671
