19
Iteration:  3557charge 0 multiplicity 1
 C        -0.008652         0.083671        -0.290600
 C         1.397614         0.155208         0.060349
 C         2.426412         1.404864        -0.048863
 C         3.421348         0.399787         0.531375
 O         4.565854         0.845275         1.305693
 C         3.721167        -0.614363        -0.622238
 C         2.276480        -1.112476        -0.405520
 O         1.452188        -2.175844        -0.836933
 C         2.290172        -0.496382         1.037091
 H        -0.568768         0.904831         0.269376
 H        -0.053016         0.154764        -1.385067
 H        -0.583918        -0.864345         0.003361
 H         2.588684         1.833612        -1.046935
 H         2.024833         2.271215         0.719089
 H         4.279381         1.710089         1.816191
 H         3.909668        -0.081987        -1.600396
 H         4.468484        -1.409152        -0.430630
 H         1.655740        -2.493895        -1.750854
 H         2.007313        -1.152082         1.893019
