19
Iteration:  4023charge 0 multiplicity 1
 C        -0.088471         0.357220        -0.248478
 C         1.390783         0.125268        -0.016839
 C         2.409382         1.307111        -0.107421
 C         3.391262         0.378562         0.547240
 O         4.455762         0.890981         1.354407
 C         3.775135        -0.642691        -0.599137
 C         2.286406        -1.141924        -0.389049
 O         1.654751        -2.300602        -0.885913
 C         2.277049        -0.570566         1.077010
 H        -0.511143         1.035342         0.513180
 H        -0.067945         0.804366        -1.259851
 H        -0.689230        -0.547610        -0.345617
 H         2.566242         1.701642        -1.078493
 H         2.047299         2.076984         0.573209
 H         4.489172         1.780836         1.110968
 H         4.045646        -0.199279        -1.616155
 H         4.410013        -1.458206        -0.259679
 H         0.772699        -2.161657        -1.267519
 H         2.186785        -0.817232         2.100723
