19
Iteration:    75charge 0 multiplicity 1
 C        -0.035032         0.168848        -0.012911
 C         1.426959         0.127871         0.153385
 C         2.291006         1.474234        -0.031776
 C         3.339361         0.433264         0.539890
 O         4.496510         0.784613         1.240860
 C         3.595128        -0.581289        -0.678812
 C         2.250547        -1.053812        -0.417378
 O         1.796991        -2.239407        -1.080530
 C         2.293475        -0.616743         1.060321
 H        -0.458013         0.725354         0.854941
 H        -0.121442         0.738473        -0.994718
 H        -0.624302        -0.754371        -0.201309
 H         2.445095         1.695749        -1.058993
 H         2.014300         2.260547         0.759298
 H         5.079290         1.271017         0.580092
 H         3.947650         0.004449        -1.550618
 H         4.408805        -1.343477        -0.664418
 H         0.992671        -2.482030        -0.549844
 H         1.998594        -0.844472         2.024564
