19
Iteration:  1377charge 0 multiplicity 1
 C        -0.071555         0.084312        -0.199722
 C         1.378440         0.216247        -0.047394
 C         2.349118         1.481992        -0.025109
 C         3.389261         0.440137         0.566807
 O         4.574290         0.748808         1.289952
 C         3.632262        -0.604043        -0.623053
 C         2.213727        -1.022197        -0.347590
 O         1.722157        -2.273019        -0.885623
 C         2.204635        -0.465644         1.079405
 H        -0.648727         0.549130         0.636673
 H        -0.343166         0.557495        -1.213933
 H        -0.293586        -0.966010        -0.280998
 H         2.449677         1.927165        -1.100963
 H         1.992399         2.152727         0.748407
 H         5.363850         0.602177         0.797580
 H         3.814315        -0.193179        -1.620524
 H         4.317537        -1.373827        -0.258015
 H         1.745631        -2.163863        -1.880522
 H         2.019139        -0.844917         1.993125
