19
Iteration:  4709charge 0 multiplicity 1
 C        -0.039498         0.246117        -0.240008
 C         1.415946         0.142630         0.031446
 C         2.352907         1.364010         0.115067
 C         3.385889         0.454157         0.592119
 O         4.558778         0.926446         1.250171
 C         3.653959        -0.577181        -0.601924
 C         2.229107        -1.089653        -0.461036
 O         1.686625        -2.351343        -0.955625
 C         2.238381        -0.641449         0.982053
 H        -0.331882         1.167609         0.272181
 H        -0.227805         0.333639        -1.320850
 H        -0.519794        -0.577908         0.235602
 H         2.489022         1.844151        -0.880632
 H         2.145241         2.047829         0.896686
 H         4.285218         1.402014         2.021521
 H         3.913765        -0.200478        -1.715397
 H         4.463725        -1.242433        -0.189852
 H         1.276948        -2.139766        -1.822828
 H         2.055024        -1.197604         1.895737
