19
Iteration:  3463
 C        -0.033630         0.513057        -0.137149
 C         1.406322         0.120052        -0.088208
 C         2.299649         1.323743        -0.079822
 C         3.432740         0.370065         0.488823
 O         4.467123         0.786064         1.288192
 C         3.599725        -0.635764        -0.686897
 C         2.285642        -1.110596        -0.332085
 O         1.910901        -2.352417        -0.867955
 C         2.133524        -0.534495         1.043890
 H        -0.197240         0.897032         0.782838
 H        -0.458576         0.924602        -1.031778
 H        -0.554848        -0.482440        -0.119836
 H         2.582337         1.819712        -1.099641
 H         2.033908         2.092054         0.716331
 H         4.296246         1.543521         1.786511
 H         3.933124        -0.027791        -1.525007
 H         4.368175        -1.362343        -0.385921
 H         0.992593        -2.480386        -1.164797
 H         1.791769        -0.998321         1.930778
