19
Iteration:   845
 C        -0.081583         0.030488        -0.188111
 C         1.454027         0.129091        -0.069899
 C         2.416225         1.487825         0.185882
 C         3.447905         0.398645         0.448932
 O         4.405056         0.836228         1.395936
 C         3.628695        -0.430244        -0.828842
 C         2.300771        -1.060732        -0.455445
 O         1.546641        -2.150373        -0.886562
 C         2.346787        -0.666390         0.993032
 H        -0.457496         0.564469         0.732952
 H        -0.545997         0.465985        -1.081420
 H        -0.447085        -0.982461        -0.190214
 H         2.737644         2.125325        -0.673008
 H         2.199566         1.874987         1.120355
 H         5.301654         0.616734         1.020579
 H         3.493153         0.313636        -1.609359
 H         4.477463        -1.123613        -0.905365
 H         1.952485        -2.803093        -0.246996
 H         2.209716        -1.254383         1.772754
