19
Iteration:  2335charge 0 multiplicity 1
 C        -0.046174         0.144103        -0.213833
 C         1.390499         0.206412        -0.129432
 C         2.384415         1.440602        -0.010031
 C         3.354507         0.365518         0.601622
 O         4.540800         0.807352         1.285874
 C         3.696413        -0.593098        -0.631494
 C         2.295643        -1.057256        -0.400089
 O         1.640287        -2.195940        -0.823251
 C         2.206209        -0.600102         1.012153
 H        -0.596753         0.962519         0.330407
 H        -0.324463        -0.133248        -1.155829
 H        -0.454507        -0.708135         0.362122
 H         2.653635         1.828396        -1.004308
 H         2.154869         2.237023         0.712003
 H         4.650191         1.722339         1.470658
 H         3.955669        -0.225629        -1.599821
 H         4.337786        -1.419264        -0.310868
 H         1.823516        -2.301200        -1.795684
 H         1.836337        -1.192049         1.965544
