19
Iteration:   154
 C        -0.095296         0.074701        -0.100220
 C         1.417905         0.109605         0.076732
 C         2.353400         1.359201         0.028214
 C         3.436934         0.407274         0.492575
 O         4.499736         0.809522         1.301999
 C         3.659834        -0.528415        -0.880208
 C         2.286573        -1.059955        -0.402952
 O         1.583750        -2.135942        -0.903345
 C         2.402006        -0.581352         1.056515
 H        -0.552288         0.927270         0.430280
 H        -0.406751         0.196463        -1.136598
 H        -0.516685        -0.859432         0.312998
 H         2.616397         1.887338        -0.868115
 H         2.068080         2.103244         0.744473
 H         4.262623         1.106706         2.236116
 H         3.688269         0.013931        -1.776388
 H         4.449327        -1.199702        -0.700073
 H         1.552039        -2.070738        -1.880523
 H         2.281500        -0.830188         2.129851
