19
Iteration:  3941
 C        -0.019704         0.174608        -0.270450
 C         1.410566         0.257147        -0.072182
 C         2.317208         1.421820        -0.095972
 C         3.365034         0.419447         0.499665
 O         4.561279         0.635431         1.283052
 C         3.640144        -0.541616        -0.639361
 C         2.287538        -1.045907        -0.351277
 O         1.676939        -2.226168        -0.722303
 C         2.221887        -0.503356         1.019036
 H        -0.626792         0.882715         0.376304
 H        -0.278785         0.507102        -1.298989
 H        -0.268436        -0.877235         0.002012
 H         2.434902         1.712563        -1.220218
 H         1.990494         2.359450         0.444782
 H         4.270225         0.966298         2.180676
 H         3.983719        -0.111591        -1.561601
 H         4.364886        -1.335905        -0.351100
 H         2.182911        -2.685616        -1.396655
 H         1.777421        -0.726635         1.902999
