19
Iteration:  3061
 C        -0.048074         0.229740        -0.306550
 C         1.456025         0.124532        -0.062083
 C         2.319583         1.268924         0.021961
 C         3.477505         0.376389         0.573945
 O         4.603960         0.965536         1.180422
 C         3.631713        -0.689310        -0.574328
 C         2.296047        -1.114296        -0.309857
 O         1.651940        -2.215245        -0.928970
 C         2.130377        -0.551547         1.155237
 H        -0.492358         0.810500         0.551327
 H        -0.292015         0.833505        -1.207686
 H        -0.473053        -0.754591        -0.357320
 H         2.583203         1.857534        -0.823054
 H         2.145792         1.927876         0.882380
 H         4.413068         1.847120         1.658395
 H         3.962642        -0.426787        -1.603368
 H         4.287273        -1.548289        -0.317132
 H         1.087040        -1.813443        -1.631481
 H         1.845663        -1.048135         1.963631
