19
Iteration:  4307charge 0 multiplicity 1
 C        -0.044669         0.200136        -0.182241
 C         1.408409         0.126633        -0.083168
 C         2.396288         1.369331        -0.090599
 C         3.340703         0.406057         0.559767
 O         4.521908         0.881152         1.188266
 C         3.725209        -0.682657        -0.449282
 C         2.285390        -1.107756        -0.345594
 O         1.674832        -2.193277        -0.937363
 C         2.192054        -0.504159         1.025174
 H        -0.357167         1.100039         0.391459
 H        -0.503593         0.305755        -1.187651
 H        -0.537041        -0.614493         0.314216
 H         2.545436         1.706229        -1.099045
 H         2.043858         2.218790         0.561226
 H         4.635057         0.620742         2.059219
 H         4.123081        -0.298526        -1.430833
 H         4.498852        -1.334441         0.010096
 H         1.067591        -1.923884        -1.663667
 H         2.011130        -1.048309         1.935190
