19
Iteration:   427
 C        -0.129908         0.118118        -0.022404
 C         1.341854         0.194930        -0.033164
 C         2.345214         1.498509        -0.116176
 C         3.289715         0.450218         0.459229
 O         4.467105         0.632364         1.325964
 C         3.716884        -0.529727        -0.684357
 C         2.315172        -0.975220        -0.369931
 O         1.749161        -2.163246        -0.910058
 C         2.258722        -0.525113         1.013646
 H        -0.641562         0.447948         0.886428
 H        -0.546835         0.832231        -0.753213
 H        -0.335257        -0.962062        -0.314763
 H         2.616834         1.817406        -1.140436
 H         1.933455         2.257972         0.611386
 H         5.216863         0.133165         0.944999
 H         3.994049        -0.225570        -1.742282
 H         4.384138        -1.292758        -0.296791
 H         2.312017        -2.864362        -0.593760
 H         2.258438        -0.993620         1.900342
