19
Iteration:  3897charge 0 multiplicity 1
 C        -0.046602         0.309496        -0.293315
 C         1.451590         0.249489        -0.039389
 C         2.334501         1.381921        -0.014268
 C         3.487604         0.391840         0.561551
 O         4.493893         0.809926         1.311373
 C         3.658363        -0.622003        -0.701455
 C         2.191083        -1.069609        -0.456225
 O         1.692266        -2.323490        -0.705304
 C         2.245089        -0.608358         1.005749
 H        -0.626461         1.198991         0.078786
 H        -0.270308         0.266423        -1.385677
 H        -0.387324        -0.657951         0.102446
 H         2.547066         2.118347        -0.799306
 H         1.996787         2.027037         0.842159
 H         4.295584         1.606515         1.832131
 H         3.908041        -0.325822        -1.696311
 H         4.478541        -1.341785        -0.506011
 H         1.639720        -2.559141        -1.644115
 H         1.896104        -1.086589         1.854180
