19
Iteration:   256charge 0 multiplicity 1
 C        -0.124125         0.279557        -0.005198
 C         1.413166         0.073700         0.156038
 C         2.339370         1.362840        -0.123995
 C         3.452251         0.355504         0.448286
 O         4.349707         0.789902         1.357921
 C         3.769399        -0.458504        -0.747313
 C         2.241793        -0.996311        -0.497948
 O         1.697723        -2.183486        -0.988455
 C         2.333697        -0.690167         1.054133
 H        -0.463937         0.698067         0.940922
 H        -0.331482         0.791806        -0.921510
 H        -0.672739        -0.646282        -0.083816
 H         2.461553         1.670039        -1.147658
 H         2.196899         2.087705         0.582292
 H         4.960419         1.411975         0.995020
 H         4.020340         0.071188        -1.600905
 H         4.432073        -1.336649        -0.692980
 H         1.694986        -2.817957        -0.247302
 H         2.143345        -1.323396         1.972223
