19
Iteration:   348charge 0 multiplicity 1
 C        -0.101266         0.206570        -0.185057
 C         1.338109         0.077345         0.213678
 C         2.257567         1.246625        -0.006545
 C         3.417598         0.397118         0.550922
 O         4.589052         0.851672         1.278868
 C         3.662463        -0.577437        -0.634762
 C         2.273835        -1.028485        -0.452748
 O         1.604646        -2.090606        -1.079507
 C         2.348630        -0.547212         1.114532
 H        -0.581633         1.030246         0.388774
 H        -0.151793         0.181188        -1.333081
 H        -0.750742        -0.639980         0.167397
 H         2.290391         1.568466        -1.061514
 H         1.850701         2.076148         0.712442
 H         5.231863         1.289413         0.671128
 H         4.120005        -0.148149        -1.618391
 H         4.351925        -1.392932        -0.311008
 H         2.089007        -2.931219        -1.054369
 H         2.394197        -1.069115         2.169349
