19
Iteration:  4232charge 0 multiplicity 1
 C        -0.080958         0.259050        -0.276292
 C         1.409359         0.189015        -0.128190
 C         2.323634         1.424326        -0.063056
 C         3.415021         0.419741         0.524852
 O         4.561305         0.836724         1.413886
 C         3.737061        -0.567345        -0.617863
 C         2.354656        -1.122291        -0.395028
 O         1.623138        -2.368816        -0.845315
 C         2.160094        -0.464452         0.953925
 H        -0.518397         0.893901         0.548570
 H        -0.450775         0.622200        -1.275117
 H        -0.665683        -0.614156        -0.169335
 H         2.546380         1.971112        -1.014836
 H         1.936786         2.066259         0.809428
 H         5.432338         0.324667         1.174022
 H         3.931521        -0.179086        -1.589622
 H         4.337313        -1.344625        -0.278173
 H         1.003667        -2.494001        -0.112671
 H         1.984739        -0.960556         1.947450
