19
Iteration:  1980
 C        -0.121332         0.313337        -0.205635
 C         1.363071         0.154646        -0.008489
 C         2.355075         1.292307        -0.092684
 C         3.480460         0.337022         0.562256
 O         4.528294         0.843497         1.182266
 C         3.748099        -0.693786        -0.464657
 C         2.247853        -1.106487        -0.305734
 O         1.765251        -2.179484        -1.077671
 C         2.174222        -0.525795         1.131005
 H        -0.359535         1.296936         0.317007
 H        -0.202898         0.502127        -1.269873
 H        -0.623578        -0.556472        -0.018736
 H         2.555176         1.628547        -1.106275
 H         2.038984         2.074174         0.648762
 H         4.111950         1.367523         1.855626
 H         4.085743        -0.220240        -1.439705
 H         4.415448        -1.439470         0.024257
 H         0.790506        -2.363976        -1.009851
 H         1.845304        -0.745451         2.042630
