19
Iteration:   188
 C        -0.084788         0.093994        -0.082034
 C         1.392024         0.124740         0.045987
 C         2.342849         1.461484         0.050058
 C         3.347633         0.466712         0.588795
 O         4.587510         0.745368         1.208238
 C         3.657210        -0.584802        -0.706838
 C         2.214137        -0.954433        -0.475595
 O         1.760917        -2.194008        -0.968107
 C         2.252778        -0.614194         1.044363
 H        -0.427494         0.660427         0.781379
 H        -0.410709         0.457017        -1.033469
 H        -0.534883        -0.916055         0.029649
 H         2.613923         1.923760        -0.875024
 H         2.003115         2.108636         0.802810
 H         4.680674         1.710203         1.202243
 H         4.020346        -0.209633        -1.611612
 H         4.384544        -1.303626        -0.388852
 H         0.814716        -2.245739        -1.036456
 H         2.138441        -1.501540         1.824945
