19
Iteration:  3805
 C        -0.156344         0.140540        -0.183030
 C         1.410974         0.246144        -0.097519
 C         2.442994         1.378255        -0.154729
 C         3.483699         0.399798         0.497315
 O         4.535267         0.805542         1.365758
 C         3.754175        -0.715208        -0.562291
 C         2.257350        -1.040837        -0.385663
 O         1.693083        -2.230648        -0.859204
 C         2.164767        -0.486313         0.979896
 H        -0.467903         0.788875         0.621346
 H        -0.621949         0.584245        -1.076522
 H        -0.571180        -0.842740        -0.091707
 H         2.536594         1.901939        -1.176031
 H         2.061833         2.104852         0.540567
 H         4.153698         1.571846         1.918824
 H         4.026153        -0.507730        -1.568491
 H         4.512794        -1.350140        -0.184531
 H         0.734417        -2.064122        -0.992709
 H         2.014764        -1.029638         1.893841
