19
Iteration:  4274charge 0 multiplicity 1
 C        -0.041761         0.308667        -0.285806
 C         1.356512         0.125717         0.053354
 C         2.430305         1.244483        -0.023645
 C         3.506627         0.337930         0.579641
 O         4.470252         1.074579         1.267936
 C         3.657518        -0.768035        -0.652247
 C         2.173377        -1.074421        -0.332805
 O         1.756867        -2.231251        -0.981571
 C         2.182855        -0.494049         1.121470
 H        -0.501969         1.192816         0.166010
 H        -0.232789         0.302589        -1.377235
 H        -0.661564        -0.497261         0.067848
 H         2.526251         1.613354        -1.033927
 H         2.221614         2.105301         0.704570
 H         5.050575         0.386694         1.657156
 H         3.830719        -0.283498        -1.628201
 H         4.406465        -1.535389        -0.362243
 H         0.778691        -2.269207        -1.136960
 H         2.079204        -1.234233         1.961615
