19
Iteration:  2030charge 0 multiplicity 1
 C        -0.110636         0.211991        -0.392751
 C         1.387861         0.150275        -0.038537
 C         2.471178         1.306691         0.028458
 C         3.479035         0.372918         0.565427
 O         4.541539         0.842484         1.312758
 C         3.727589        -0.616374        -0.692807
 C         2.297492        -1.080483        -0.402188
 O         1.578512        -2.225569        -0.736559
 C         2.178120        -0.517379         1.033919
 H        -0.657555         0.345542         0.497384
 H        -0.298267         0.880475        -1.287812
 H        -0.368580        -0.870164        -0.807899
 H         2.651635         1.948416        -0.918962
 H         2.248563         1.949963         0.913445
 H         4.212031         1.731514         1.737263
 H         4.038326        -0.040141        -1.545078
 H         4.434414        -1.444130        -0.443175
 H         1.071130        -1.988997        -1.547284
 H         1.896435        -0.893167         2.091308
