19
Iteration:  3570
 C        -0.052770         0.168289        -0.290198
 C         1.447787         0.186707        -0.017524
 C         2.343990         1.323516        -0.028593
 C         3.463205         0.393708         0.545536
 O         4.544092         0.819941         1.264176
 C         3.672508        -0.611488        -0.677998
 C         2.250265        -1.003873        -0.379428
 O         1.599269        -2.153704        -0.775225
 C         2.222794        -0.649456         1.068336
 H        -0.536051         1.050750         0.229302
 H        -0.345714         0.311217        -1.395888
 H        -0.551594        -0.890144         0.056162
 H         2.643784         1.821467        -1.013579
 H         2.096725         2.151405         0.738835
 H         4.308226         1.604583         1.679030
 H         4.064838        -0.374618        -1.688259
 H         4.337894        -1.382050        -0.260992
 H         1.868421        -2.307901        -1.693340
 H         1.958961        -0.907186         2.009485
