19
Iteration:  1134charge 0 multiplicity 1
 C        -0.197866         0.010228        -0.124673
 C         1.376395         0.284205        -0.075881
 C         2.395486         1.477503         0.004544
 C         3.386084         0.422448         0.527646
 O         4.595502         0.740560         1.338279
 C         3.727314        -0.512673        -0.619562
 C         2.222344        -1.003321        -0.451330
 O         1.741195        -2.320532        -0.858877
 C         2.146208        -0.481352         0.981943
 H        -0.719300         0.643484         0.627582
 H        -0.720021         0.151535        -1.150842
 H        -0.404813        -1.017506         0.241407
 H         2.855089         2.101877        -0.757226
 H         2.229754         2.098713         0.828370
 H         5.320733         1.106696         0.721728
 H         4.012602        -0.197341        -1.655132
 H         4.420852        -1.332424        -0.439901
 H         1.411446        -2.316769        -1.755688
 H         1.847557        -0.895496         1.883250
