19
Iteration:  2248charge 0 multiplicity 1
 C        -0.105245         0.376676        -0.233064
 C         1.419869         0.177871        -0.069254
 C         2.424578         1.348978        -0.069826
 C         3.424589         0.385240         0.549191
 O         4.398205         0.979459         1.397620
 C         3.727604        -0.599767        -0.666603
 C         2.291411        -1.142315        -0.422393
 O         1.685639        -2.339904        -0.872642
 C         2.206001        -0.588177         0.945021
 H        -0.527142         0.702978         0.791306
 H        -0.425889         1.032532        -1.055465
 H        -0.575203        -0.666791        -0.307049
 H         2.611225         1.917528        -0.989263
 H         2.257675         2.033780         0.695724
 H         5.119390         0.392987         1.491659
 H         3.942178        -0.230486        -1.687956
 H         4.471718        -1.426351        -0.451247
 H         1.508167        -2.851430        -0.065169
 H         1.919208        -1.204229         1.895350
