19
Iteration:   240
 C        -0.071853         0.297436         0.024048
 C         1.387296         0.185661         0.059750
 C         2.333045         1.282159         0.008680
 C         3.419877         0.358440         0.535742
 O         4.432744         0.891750         1.350604
 C         3.590727        -0.580568        -0.724955
 C         2.206862        -1.046310        -0.425959
 O         1.784461        -2.254121        -1.092170
 C         2.364824        -0.661334         0.962518
 H        -0.541226         0.863209         0.846411
 H        -0.316529         1.011877        -0.809934
 H        -0.487573        -0.714113        -0.202689
 H         2.528699         1.689516        -1.027062
 H         2.077551         2.183185         0.713860
 H         4.849363         1.525196         0.777265
 H         3.930110        -0.075392        -1.707136
 H         4.308170        -1.331401        -0.389589
 H         1.427691        -2.839021        -0.433364
 H         2.291260        -1.116026         1.934202
