19
Iteration:  1696
 C         0.036952         0.197415        -0.328835
 C         1.409562         0.102955        -0.000546
 C         2.311060         1.313649         0.044556
 C         3.448327         0.380952         0.530355
 O         4.502684         0.907898         1.209476
 C         3.694186        -0.679729        -0.549872
 C         2.254127        -1.025972        -0.313994
 O         1.622156        -2.116469        -0.955393
 C         2.274759        -0.573482         1.099281
 H        -0.682590         1.053558         0.088027
 H        -0.233913         0.434247        -1.393007
 H        -0.360504        -0.803328        -0.066214
 H         2.589468         1.700783        -0.970102
 H         1.947502         1.977869         0.779496
 H         4.737405         0.332790         1.971494
 H         3.935162        -0.166911        -1.520462
 H         4.515726        -1.417688        -0.331040
 H         0.705790        -1.892170        -1.293706
 H         2.017922        -1.037130         2.016540
