19
Iteration:  1662charge 0 multiplicity 1
 C        -0.054449         0.206490        -0.290046
 C         1.414310         0.231757        -0.034258
 C         2.450512         1.364490         0.057740
 C         3.532087         0.419194         0.520957
 O         4.522136         0.910549         1.367447
 C         3.706300        -0.613174        -0.662936
 C         2.207881        -1.114594        -0.438548
 O         1.570450        -2.317610        -0.898601
 C         2.267693        -0.593943         1.003383
 H        -0.700535         0.847236         0.473150
 H        -0.178317         0.441479        -1.379265
 H        -0.514636        -0.776372        -0.193161
 H         2.728050         1.960003        -0.849855
 H         2.124877         2.075169         0.713771
 H         4.004045         1.204273         2.095768
 H         3.866415        -0.073040        -1.633413
 H         4.513951        -1.361909        -0.494373
 H         0.601902        -2.112001        -0.872210
 H         2.101866        -1.069839         1.880191
