19
Iteration:  1953
 C        -0.135409         0.312361        -0.105588
 C         1.350831         0.258125        -0.106559
 C         2.442249         1.378681        -0.085066
 C         3.426707         0.394715         0.596319
 O         4.554992         0.756321         1.323895
 C         3.601119        -0.658460        -0.579149
 C         2.199648        -1.021220        -0.412014
 O         1.901211        -2.351324        -0.993071
 C         2.136141        -0.497453         0.981733
 H        -0.344371         1.331503         0.084453
 H        -0.560031         0.096610        -1.138337
 H        -0.418159        -0.528606         0.665899
 H         2.844622         1.727391        -1.050164
 H         2.143324         2.211928         0.550349
 H         4.288300         1.575315         1.748626
 H         3.871118        -0.426625        -1.596988
 H         4.260756        -1.334820        -0.053017
 H         0.969843        -2.682903        -0.845767
 H         1.714760        -1.027497         1.976990
