19
Iteration:  1350
 C        -0.147380         0.292398        -0.317209
 C         1.336450         0.205146         0.039346
 C         2.340805         1.343603         0.046955
 C         3.424014         0.378980         0.590681
 O         4.524214         0.845877         1.217436
 C         3.651473        -0.494369        -0.746466
 C         2.263009        -1.038803        -0.342668
 O         1.803183        -2.329650        -0.783429
 C         2.283132        -0.611586         1.066840
 H        -0.676849         1.099475         0.170578
 H        -0.197668         0.644442        -1.303466
 H        -0.600358        -0.714992        -0.287543
 H         2.416420         1.797923        -0.958730
 H         2.006274         1.971604         0.909970
 H         5.109867         0.153438         1.477919
 H         3.623531         0.152345        -1.621573
 H         4.485520        -1.206967        -0.699071
 H         1.084804        -2.225505        -1.463635
 H         2.011493        -1.406165         1.910122
