19
Iteration:  1665
 C        -0.048119         0.208881        -0.301237
 C         1.395795         0.181837        -0.023950
 C         2.472789         1.379920         0.062056
 C         3.512935         0.416984         0.494190
 O         4.535173         0.939487         1.373489
 C         3.702580        -0.624330        -0.673591
 C         2.230762        -1.122303        -0.417736
 O         1.543435        -2.306866        -0.909329
 C         2.268968        -0.597816         1.007392
 H        -0.753382         0.807488         0.388142
 H        -0.207821         0.450298        -1.375693
 H        -0.541044        -0.795148        -0.178340
 H         2.784998         2.041051        -0.791387
 H         2.154971         2.168846         0.816670
 H         4.024623         1.147377         2.179802
 H         3.978250        -0.143997        -1.667112
 H         4.560701        -1.302881        -0.539427
 H         0.609258        -2.122219        -0.879796
 H         2.023380        -1.065927         1.971378
