19
Iteration:  2599
 C        -0.107715         0.131567        -0.213055
 C         1.453255         0.089461        -0.093747
 C         2.311457         1.329200        -0.052213
 C         3.488726         0.347940         0.516508
 O         4.444715         0.953265         1.405716
 C         3.785661        -0.621443        -0.600001
 C         2.261714        -1.090320        -0.362140
 O         1.574519        -2.119793        -0.938268
 C         2.327785        -0.578020         1.029086
 H        -0.523234         0.856400         0.527340
 H        -0.471394         0.467121        -1.175039
 H        -0.483166        -0.932226         0.025954
 H         2.501567         1.902240        -0.879616
 H         1.996315         2.092390         0.718241
 H         5.329279         1.139219         0.942319
 H         4.138346        -0.421872        -1.597210
 H         4.452805        -1.404074        -0.093056
 H         0.859575        -1.907116        -1.585361
 H         1.952995        -0.997619         2.067192
