19
Iteration:   469charge 0 multiplicity 1
 C        -0.070530         0.140412        -0.224112
 C         1.440220         0.148561         0.017766
 C         2.357914         1.426253         0.048035
 C         3.468628         0.412557         0.631080
 O         4.559530         0.994866         1.274191
 C         3.614350        -0.578264        -0.651298
 C         2.223143        -1.095799        -0.388907
 O         1.529239        -2.215310        -1.027318
 C         2.302983        -0.656080         1.082079
 H        -0.587216         0.725905         0.543400
 H        -0.405924         0.801494        -1.051738
 H        -0.460548        -0.922547        -0.244689
 H         2.678340         1.782522        -0.906177
 H         2.051800         2.152740         0.874870
 H         5.278030         0.687065         0.741444
 H         3.937918        -0.194448        -1.577784
 H         4.340818        -1.386699        -0.482871
 H         2.004303        -3.028076        -0.821365
 H         2.006458        -1.222843         1.918834
