19
Iteration:   894charge 0 multiplicity 1
 C        -0.262183         0.218676         0.028326
 C         1.291392         0.119702         0.056407
 C         2.326764         1.342773         0.006632
 C         3.410077         0.339475         0.622950
 O         4.559348         0.884701         1.197317
 C         3.685338        -0.529549        -0.675254
 C         2.249520        -1.032827        -0.433662
 O         1.839559        -2.117855        -1.146754
 C         2.303974        -0.613782         1.039220
 H        -0.495234         0.973296         0.750941
 H        -0.560726         0.522738        -0.993027
 H        -0.902508        -0.664341         0.224262
 H         2.548039         1.614727        -1.002818
 H         1.845504         2.168563         0.623423
 H         4.973029         0.103895         1.632436
 H         3.972734        -0.155046        -1.707049
 H         4.302479        -1.353140        -0.279982
 H         2.168783        -2.884370        -0.692579
 H         2.023010        -1.287447         2.005596
