19
Iteration:  3330
 C        -0.044139         0.322763        -0.195724
 C         1.378005         0.154748        -0.049176
 C         2.339649         1.429493         0.025794
 C         3.453473         0.361693         0.526535
 O         4.461677         0.812112         1.255486
 C         3.744273        -0.577332        -0.625956
 C         2.268944        -1.067042        -0.503558
 O         1.657060        -2.308986        -0.730356
 C         2.258924        -0.658652         0.940467
 H        -0.274061         1.342183        -0.035464
 H        -0.247081         0.185173        -1.259996
 H        -0.607965        -0.286777         0.559512
 H         2.460049         2.147129        -0.896283
 H         2.007906         2.222406         0.858420
 H         4.143188         1.452410         1.846635
 H         3.918626        -0.130495        -1.657869
 H         4.462791        -1.378265        -0.383405
 H         1.711101        -2.624485        -1.656604
 H         2.049895        -1.148545         1.923981
