19
Iteration:   932
 C        -0.036622         0.160461         0.022119
 C         1.449388         0.088073        -0.023865
 C         2.338293         1.358627         0.065565
 C         3.376384         0.419839         0.585445
 O         4.450221         1.075721         1.262878
 C         3.640650        -0.713896        -0.675578
 C         2.263201        -1.118434        -0.409606
 O         1.617004        -2.118772        -1.182714
 C         2.310336        -0.643591         1.065312
 H        -0.402448         0.902843         0.810318
 H        -0.434534         0.657295        -0.878409
 H        -0.457191        -0.847122         0.130556
 H         2.761932         1.863216        -0.887261
 H         2.006427         2.035992         0.951428
 H         5.165199         0.393736         1.519551
 H         3.991565        -0.252548        -1.597114
 H         4.221465        -1.556027        -0.224692
 H         2.346623        -2.684172        -1.496819
 H         1.928253        -0.995890         1.945249
