19
Iteration:   454
 C        -0.084816         0.135977        -0.132808
 C         1.376685         0.130692         0.009027
 C         2.368177         1.338901        -0.023921
 C         3.412177         0.427884         0.506098
 O         4.623475         0.861300         1.353366
 C         3.582688        -0.555865        -0.696113
 C         2.217238        -1.102770        -0.331792
 O         1.657428        -2.168353        -1.039484
 C         2.221109        -0.500104         1.072417
 H        -0.680777         0.438812         0.756657
 H        -0.300351         0.679413        -1.085341
 H        -0.366765        -0.854454        -0.416423
 H         2.522889         1.960083        -0.958603
 H         1.924000         2.039474         0.682851
 H         5.490738         0.522799         0.985247
 H         3.566495        -0.069198        -1.724485
 H         4.452983        -1.283580        -0.472799
 H         2.131847        -2.952943        -0.758482
 H         1.954072        -0.628924         2.253084
