19
Iteration:  1281charge 0 multiplicity 1
 C        -0.110690         0.116075        -0.025174
 C         1.409121         0.146546        -0.025860
 C         2.386426         1.345800        -0.170633
 C         3.437226         0.354857         0.517864
 O         4.488485         0.828888         1.231132
 C         3.686896        -0.580730        -0.615870
 C         2.252479        -1.003547        -0.369432
 O         1.709364        -2.136665        -0.903537
 C         2.240554        -0.531908         1.064140
 H        -0.639247         0.828947         0.607512
 H        -0.461638         0.330370        -1.029003
 H        -0.283981        -0.979953         0.154850
 H         2.737154         1.632724        -1.095052
 H         2.188659         2.127917         0.567722
 H         4.258474         0.804864         2.134528
 H         3.860515        -0.142350        -1.622750
 H         4.330022        -1.400194        -0.268135
 H         1.800604        -2.088381        -1.892566
 H         1.735382        -0.921850         1.819077
