19
Iteration:  3945charge 0 multiplicity 1
 C        -0.005067         0.138344        -0.274264
 C         1.397122         0.290120        -0.038018
 C         2.306796         1.443052        -0.107162
 C         3.385057         0.426309         0.518418
 O         4.563221         0.659885         1.271264
 C         3.621901        -0.581464        -0.628437
 C         2.232911        -1.061863        -0.346886
 O         1.698573        -2.207131        -0.734431
 C         2.216795        -0.515452         0.968492
 H        -0.428550         0.861806         0.406162
 H        -0.281993         0.543473        -1.250312
 H        -0.372415        -0.924768        -0.035663
 H         2.541757         1.746294        -1.076074
 H         2.001058         2.366109         0.426432
 H         4.375534         0.912182         2.168437
 H         4.178967        -0.241381        -1.577133
 H         4.316452        -1.321308        -0.224750
 H         2.199724        -2.690064        -1.417738
 H         1.726054        -0.738021         2.006451
