19
Iteration:  3507charge 0 multiplicity 1
 C        -0.088223         0.227513        -0.194674
 C         1.354657         0.285525        -0.055004
 C         2.364634         1.377219        -0.077108
 C         3.425630         0.338150         0.537614
 O         4.562698         0.800169         1.218217
 C         3.739894        -0.635958        -0.569734
 C         2.259720        -1.016628        -0.377441
 O         1.741801        -2.267042        -0.853310
 C         2.142438        -0.550356         1.058080
 H        -0.459018         0.977147         0.427059
 H        -0.432835         0.267026        -1.233935
 H        -0.498864        -0.759984         0.099753
 H         2.560672         1.903691        -1.056944
 H         2.031303         2.063850         0.629563
 H         4.331969         1.287378         1.994725
 H         4.045748        -0.363091        -1.579516
 H         4.361839        -1.469879        -0.195265
 H         1.063845        -2.147363        -1.542998
 H         2.058873        -1.166778         1.876612
