19
Iteration:  2829charge 0 multiplicity 1
 C        -0.126066         0.274327        -0.129660
 C         1.385848         0.122845        -0.085385
 C         2.342975         1.400172        -0.089049
 C         3.434447         0.378234         0.489605
 O         4.369122         0.731629         1.457318
 C         3.761487        -0.532817        -0.748787
 C         2.306444        -1.080505        -0.417177
 O         1.748289        -2.325111        -0.736107
 C         2.265778        -0.490378         0.956888
 H        -0.477801         0.853307         0.662637
 H        -0.456206         0.929795        -0.878473
 H        -0.832441        -0.576733        -0.155755
 H         2.639200         1.966705        -0.982548
 H         1.967205         2.157739         0.619629
 H         5.226317         1.092997         1.001774
 H         3.698873        -0.181253        -1.748370
 H         4.618796        -1.203420        -0.847801
 H         1.656690        -2.141584        -1.686433
 H         1.941088        -0.848918         1.893249
