19
Iteration:  1540charge 0 multiplicity 1
 C         0.024291         0.133019        -0.284278
 C         1.427238         0.164791         0.041309
 C         2.333941         1.386471        -0.040788
 C         3.476499         0.425826         0.512651
 O         4.580217         0.838173         1.371437
 C         3.666493        -0.589267        -0.645814
 C         2.223758        -1.104047        -0.387525
 O         1.477148        -2.129769        -0.996966
 C         2.353306        -0.599335         1.051616
 H        -0.701438         0.805528         0.366883
 H        -0.083699         0.419403        -1.385926
 H        -0.391558        -0.910243        -0.252359
 H         2.466143         1.896604        -1.049001
 H         1.907592         2.089796         0.630747
 H         4.083259         1.457823         1.897243
 H         3.923593        -0.232059        -1.666699
 H         4.353663        -1.345193        -0.204128
 H         1.425953        -2.826058        -0.337906
 H         2.347306        -1.067217         2.156866
