19
Iteration:  1659charge 0 multiplicity 1
 C        -0.067865         0.213056        -0.274032
 C         1.444514         0.271176        -0.039727
 C         2.426320         1.346129         0.029208
 C         3.533956         0.404754         0.552404
 O         4.512229         0.873923         1.353680
 C         3.709783        -0.597525        -0.658191
 C         2.193472        -1.095603        -0.452005
 O         1.602883        -2.321359        -0.885169
 C         2.268541        -0.579433         0.980977
 H        -0.549011         0.839561         0.432379
 H        -0.187721         0.474530        -1.326760
 H        -0.473002        -0.795396        -0.189251
 H         2.645875         1.844737        -0.920406
 H         2.042506         2.088073         0.776847
 H         3.958725         1.314739         2.108219
 H         3.760464        -0.036856        -1.579426
 H         4.415500        -1.412793        -0.436759
 H         0.635503        -2.117309        -0.874451
 H         2.127247        -1.166182         1.965950
