19
Iteration:  2426
 C        -0.174297         0.151341        -0.168664
 C         1.375655         0.209049        -0.126223
 C         2.326689         1.444453        -0.023705
 C         3.472644         0.416954         0.523121
 O         4.493595         0.860424         1.358747
 C         3.688763        -0.686218        -0.607659
 C         2.293906        -1.086778        -0.356004
 O         1.769542        -2.250201        -0.906551
 C         2.219305        -0.527346         1.033481
 H        -0.616743         0.574724         0.716304
 H        -0.328974         0.678660        -1.090037
 H        -0.663014        -0.857885        -0.365374
 H         2.737277         1.908387        -0.948914
 H         2.225477         2.187519         0.725885
 H         5.186891         0.881298         0.735032
 H         4.050815        -0.386828        -1.590652
 H         4.283628        -1.577045        -0.245481
 H         0.972002        -2.021174        -1.380964
 H         1.826061        -0.780034         2.042356
