19
Iteration:   479charge 0 multiplicity 1
 C        -0.053015         0.196162        -0.231542
 C         1.418597         0.133534         0.061799
 C         2.392584         1.339903         0.120270
 C         3.418200         0.330234         0.566519
 O         4.471331         1.026939         1.182225
 C         3.740841        -0.612525        -0.607499
 C         2.268041        -1.040565        -0.443526
 O         1.494001        -2.146846        -0.961745
 C         2.294175        -0.704065         1.037608
 H        -0.482390         0.741813         0.610312
 H        -0.263192         0.537272        -1.287080
 H        -0.545464        -0.823245        -0.203426
 H         2.424229         1.910041        -0.799105
 H         2.052625         2.132427         0.882122
 H         5.370508         0.849682         0.894996
 H         4.021982        -0.032819        -1.452193
 H         4.497528        -1.360441        -0.223959
 H         2.023810        -2.893203        -0.702342
 H         2.003087        -1.415732         1.824803
