19
Iteration:  4111
 C        -0.132694         0.189721        -0.287515
 C         1.428010         0.181619        -0.034933
 C         2.404396         1.350596        -0.114738
 C         3.478476         0.398953         0.571957
 O         4.473095         0.886547         1.338336
 C         3.668132        -0.682720        -0.582637
 C         2.193992        -1.016523        -0.363469
 O         1.724311        -2.191287        -0.973761
 C         2.224552        -0.490817         1.097240
 H        -0.542678         1.119237         0.210377
 H        -0.283049         0.172137        -1.426947
 H        -0.641350        -0.689308         0.131907
 H         2.518530         1.808098        -1.110281
 H         2.293456         2.090018         0.728703
 H         5.170640         0.259000         1.413149
 H         4.026708        -0.399775        -1.598856
 H         4.153333        -1.630833        -0.308940
 H         1.393681        -2.776761        -0.280316
 H         1.886361        -0.805735         2.092461
