19
Iteration:  2448
 C        -0.049924         0.124658        -0.113265
 C         1.466564         0.180948        -0.082131
 C         2.344866         1.358779        -0.112258
 C         3.467666         0.376532         0.504294
 O         4.401901         0.908639         1.314580
 C         3.734447        -0.686052        -0.522392
 C         2.271019        -1.049755        -0.409392
 O         1.669162        -2.177652        -0.955003
 C         2.195154        -0.453479         1.064153
 H        -0.446225         0.145561         0.888979
 H        -0.506460         0.736646        -0.920297
 H        -0.277697        -0.938839        -0.450005
 H         2.606921         1.821970        -1.119130
 H         1.970802         2.065594         0.657781
 H         5.200200         0.267038         1.143737
 H         4.158115        -0.347387        -1.485340
 H         4.489211        -1.357710        -0.028806
 H         0.806035        -1.884977        -1.355306
 H         2.014931        -0.985189         2.085328
