19
Iteration:   695charge 0 multiplicity 1
 C        -0.073182         0.025524        -0.100241
 C         1.421863         0.134582        -0.037014
 C         2.451613         1.560909         0.008811
 C         3.417417         0.397653         0.577974
 O         4.546883         0.832667         1.353538
 C         3.552253        -0.430720        -0.763507
 C         2.197607        -1.100956        -0.466973
 O         1.628342        -2.207167        -0.924268
 C         2.262854        -0.598570         0.984590
 H        -0.661451         0.687028         0.540987
 H        -0.355317         0.375234        -1.096247
 H        -0.428068        -0.995016         0.123502
 H         2.734458         2.216720        -0.871854
 H         2.063776         2.192996         0.788220
 H         5.019342         0.060126         1.779390
 H         3.720347         0.144660        -1.703119
 H         4.407539        -1.054985        -0.709243
 H         2.229561        -3.007388        -0.934251
 H         2.007928        -1.052228         1.887216
