19
Iteration:  3114
 C        -0.106830         0.167415        -0.148114
 C         1.421535         0.165381        -0.054229
 C         2.304336         1.391077        -0.184015
 C         3.452495         0.417760         0.484465
 O         4.519594         0.758918         1.361278
 C         3.768566        -0.675986        -0.594334
 C         2.258682        -1.034977        -0.438745
 O         1.677700        -2.173789        -0.815635
 C         2.241881        -0.524810         1.018668
 H        -0.438379         1.060694         0.273538
 H        -0.365050         0.039331        -1.220480
 H        -0.647271        -0.629908         0.368379
 H         2.839427         1.761818        -1.112264
 H         2.136949         2.173029         0.472747
 H         4.141478         1.471938         1.988063
 H         4.103536        -0.263012        -1.535486
 H         4.327797        -1.484931        -0.160084
 H         1.050376        -1.993111        -1.553124
 H         1.925298        -0.944077         1.865353
