19
Iteration:  4128charge 0 multiplicity 1
 C         0.020792         0.245998        -0.274401
 C         1.398316         0.280301         0.105889
 C         2.478508         1.371590        -0.016771
 C         3.386834         0.336066         0.496156
 O         4.417333         1.027750         1.248841
 C         3.724318        -0.714627        -0.534550
 C         2.260448        -1.120747        -0.376039
 O         1.605313        -2.207645        -0.992303
 C         2.162024        -0.635445         1.016709
 H        -0.668338         0.988822         0.021886
 H        -0.209179         0.362953        -1.306650
 H        -0.510720        -0.699250         0.051221
 H         2.785563         1.729121        -1.015633
 H         2.210951         2.265580         0.567803
 H         5.038757         0.441980         1.735458
 H         4.100002        -0.392885        -1.513531
 H         4.452820        -1.427985        -0.064627
 H         1.595651        -2.980762        -0.415393
 H         1.971601        -1.124966         1.943577
