19
Iteration:   449charge 0 multiplicity 1
 C        -0.101316         0.121938        -0.132939
 C         1.382627         0.124818         0.021132
 C         2.344954         1.370180        -0.059548
 C         3.434127         0.382538         0.475102
 O         4.584004         0.796099         1.343360
 C         3.584425        -0.563059        -0.688000
 C         2.244210        -1.081930        -0.319334
 O         1.701095        -2.138648        -1.025096
 C         2.211967        -0.439754         1.095527
 H        -0.669304         0.501150         0.716563
 H        -0.483473         0.832012        -0.883830
 H        -0.356190        -0.960631        -0.339270
 H         2.410907         1.840080        -1.050651
 H         1.927851         1.935705         0.804590
 H         5.421968         0.431032         1.027385
 H         3.669179        -0.050814        -1.673141
 H         4.475271        -1.130421        -0.621101
 H         2.218808        -2.924796        -0.690808
 H         1.921316        -0.535249         2.033113
