19
Iteration:  1083charge 0 multiplicity 1
 C        -0.075602         0.188770         0.006732
 C         1.478439         0.164498         0.103602
 C         2.391477         1.353298        -0.131179
 C         3.424009         0.367243         0.474406
 O         4.282467         0.945731         1.378322
 C         3.753067        -0.552865        -0.656300
 C         2.343358        -1.162836        -0.397828
 O         1.579256        -2.185164        -0.999003
 C         2.337692        -0.632668         0.988784
 H        -0.567830         0.710539         0.825780
 H        -0.369188         0.512304        -0.964482
 H        -0.496288        -0.776379         0.097311
 H         2.709304         1.649333        -1.129504
 H         2.187006         2.307528         0.450168
 H         5.256896         0.836098         1.213808
 H         3.977588        -0.215767        -1.660667
 H         4.438978        -1.403818        -0.515110
 H         1.479916        -2.053162        -1.966965
 H         2.069294        -1.009779         2.047733
