19
Iteration:  3887
 C         0.010836         0.278562        -0.276511
 C         1.379984         0.220854        -0.001848
 C         2.398566         1.381927         0.012203
 C         3.367992         0.348689         0.504024
 O         4.512580         0.849561         1.238472
 C         3.729297        -0.667055        -0.630981
 C         2.226359        -1.020379        -0.416177
 O         1.718371        -2.330910        -0.758475
 C         2.171345        -0.571300         0.994724
 H        -0.425340         1.167984         0.243040
 H        -0.117414         0.388029        -1.368126
 H        -0.571001        -0.552545         0.214024
 H         2.558645         1.985219        -0.847759
 H         1.952428         1.918671         0.888206
 H         4.252497         1.690849         1.754590
 H         4.046777        -0.138723        -1.530882
 H         4.274503        -1.518900        -0.180900
 H         1.318950        -2.214663        -1.648195
 H         1.920568        -1.258693         1.692353
