19
Iteration:  4137
 C        -0.015101         0.278036        -0.307480
 C         1.468093         0.257932         0.055508
 C         2.414370         1.369496        -0.015673
 C         3.450944         0.339607         0.638515
 O         4.384532         1.042212         1.180476
 C         3.774536        -0.713965        -0.513216
 C         2.313188        -1.178449        -0.366319
 O         1.516390        -2.195276        -0.980451
 C         2.181569        -0.605847         1.014010
 H        -0.495956         1.059554         0.335106
 H        -0.130532         0.420176        -1.385113
 H        -0.463222        -0.686276        -0.076371
 H         2.525473         1.726661        -1.040210
 H         2.273896         2.089645         0.727830
 H         4.904701         0.711747         1.915401
 H         3.996401        -0.377583        -1.573035
 H         4.515561        -1.567042        -0.212938
 H         1.757027        -3.063155        -0.634880
 H         1.952741        -1.382476         1.792525
