19
Iteration:  3138charge 0 multiplicity 1
 C        -0.133379         0.219828        -0.148951
 C         1.417846         0.226629        -0.181352
 C         2.432866         1.473300        -0.075124
 C         3.411783         0.429414         0.485625
 O         4.530054         0.676536         1.297977
 C         3.731117        -0.582050        -0.640176
 C         2.176036        -1.082235        -0.400190
 O         1.764840        -2.364450        -0.756193
 C         2.134155        -0.416308         0.998943
 H        -0.485293         1.114505         0.397612
 H        -0.574224        -0.037509        -1.091708
 H        -0.428269        -0.574924         0.478323
 H         2.868981         2.051389        -0.954958
 H         1.950860         2.075830         0.603026
 H         4.249394         1.046938         2.190484
 H         3.865293         0.000119        -1.542856
 H         4.537872        -1.240587        -0.303685
 H         1.805614        -2.371195        -1.716445
 H         1.763293        -0.860859         1.923384
