19
Iteration:  1632charge 0 multiplicity 1
 C        -0.177775         0.300893        -0.131641
 C         1.385646         0.157940        -0.064650
 C         2.366746         1.369559        -0.086986
 C         3.407387         0.455082         0.492599
 O         4.478932         0.613916         1.305056
 C         3.729315        -0.611307        -0.642526
 C         2.283606        -1.029142        -0.402373
 O         1.887174        -2.239537        -0.853708
 C         2.128453        -0.540083         1.049787
 H        -0.393229         1.130089         0.603564
 H        -0.326221         0.742490        -1.126750
 H        -0.753468        -0.629848        -0.034616
 H         2.774502         1.737310        -1.076408
 H         1.933904         2.192023         0.582762
 H         4.474748         1.609109         1.592369
 H         3.961133        -0.162427        -1.625493
 H         4.411609        -1.301151        -0.152214
 H         1.047958        -2.105555        -1.338471
 H         1.852811        -1.023406         1.903457
