19
Iteration:  3489charge 0 multiplicity 1
 C        -0.224103         0.368803        -0.157568
 C         1.383275         0.138998        -0.057519
 C         2.387157         1.391780        -0.063274
 C         3.425526         0.437254         0.541597
 O         4.556830         0.759091         1.229896
 C         3.658780        -0.607169        -0.555341
 C         2.252212        -1.093023        -0.422541
 O         1.842392        -2.385330        -0.883285
 C         2.223649        -0.538331         0.982928
 H        -0.621934         1.139259         0.604439
 H        -0.437930         0.665325        -1.207845
 H        -0.841512        -0.496014         0.084886
 H         2.760860         1.803833        -0.990949
 H         2.112254         2.309711         0.722828
 H         4.424724         1.392105         1.926664
 H         4.145921        -0.113024        -1.429983
 H         4.362661        -1.279875        -0.021485
 H         0.974707        -2.376326        -1.337105
 H         1.779497        -0.791365         1.994941
