19
Iteration:   236charge 0 multiplicity 1
 C        -0.103833         0.293772         0.019211
 C         1.401883         0.158621         0.042856
 C         2.328689         1.333659         0.045764
 C         3.454924         0.372213         0.538213
 O         4.454460         0.905620         1.345839
 C         3.561745        -0.617369        -0.742010
 C         2.254506        -1.063659        -0.414635
 O         1.789215        -2.266661        -1.120689
 C         2.306485        -0.631315         0.987476
 H        -0.497622         0.817152         0.948756
 H        -0.331922         0.984767        -0.874586
 H        -0.594508        -0.650434        -0.195334
 H         2.620052         1.734879        -0.955539
 H         2.027306         2.102994         0.765766
 H         4.877967         1.589174         0.747875
 H         3.906698        -0.186155        -1.763465
 H         4.364637        -1.373363        -0.391064
 H         1.353782        -2.831688        -0.410404
 H         2.235317        -1.135804         1.916760
