19
Iteration:  2585charge 0 multiplicity 1
 C        -0.029764         0.096319        -0.197330
 C         1.389229         0.175689         0.033138
 C         2.340386         1.389318        -0.029579
 C         3.418307         0.492759         0.559313
 O         4.466729         0.893602         1.429510
 C         3.740406        -0.696264        -0.676786
 C         2.325887        -1.067529        -0.473151
 O         1.612691        -2.246018        -0.907057
 C         2.252694        -0.518157         0.997063
 H        -0.593000         0.933388         0.325316
 H        -0.255648         0.290261        -1.362089
 H        -0.560845        -0.852121         0.103555
 H         2.451648         1.857596        -1.054559
 H         2.003231         2.106028         0.738413
 H         5.228900         0.663829         0.970900
 H         4.090220        -0.176853        -1.649189
 H         4.424006        -1.519806        -0.356645
 H         1.005467        -1.753277        -1.486643
 H         2.001568        -0.946785         1.988838
