19
Iteration:   910charge 0 multiplicity 1
 C        -0.132641         0.241694         0.052731
 C         1.333196         0.149754         0.132533
 C         2.329744         1.283650        -0.036811
 C         3.452724         0.365917         0.504159
 O         4.505936         0.942154         1.168381
 C         3.677320        -0.556462        -0.581184
 C         2.254402        -1.093290        -0.415262
 O         1.802181        -2.112855        -1.215936
 C         2.128056        -0.679632         1.126447
 H        -0.618334         0.986187         0.778511
 H        -0.519081         0.564552        -0.926665
 H        -0.401149        -0.797433         0.234983
 H         2.527907         1.612360        -1.122853
 H         2.333815         2.077638         0.786618
 H         4.952149         0.358272         1.739139
 H         3.800400         0.102670        -1.442665
 H         4.441308        -1.348666        -0.428490
 H         2.410818        -2.880042        -1.171159
 H         1.936558        -1.045113         2.026906
