19
Iteration:  3227
 C         0.007839         0.132156        -0.281307
 C         1.416106         0.181124        -0.010025
 C         2.457286         1.368103         0.028678
 C         3.474189         0.406600         0.500648
 O         4.533997         0.938128         1.209451
 C         3.684928        -0.746228        -0.571691
 C         2.241596        -1.118323        -0.362887
 O         1.605361        -2.218127        -0.867403
 C         2.140485        -0.561957         1.048456
 H        -0.513269         0.385797         0.700732
 H        -0.260162         0.884329        -0.991216
 H        -0.406659        -0.748971        -0.667958
 H         2.713174         1.924801        -1.001356
 H         2.138899         2.044358         0.791457
 H         4.192192         1.791405         1.623844
 H         4.014289        -0.195161        -1.469404
 H         4.557825        -1.320876        -0.214412
 H         0.937889        -1.835056        -1.441746
 H         1.645313        -0.967622         2.092834
