19
Iteration:   372
 C        -0.010985         0.274967        -0.103957
 C         1.448599         0.101867         0.042977
 C         2.341825         1.340771         0.081084
 C         3.437559         0.369272         0.472522
 O         4.363301         0.948691         1.302720
 C         3.637110        -0.571071        -0.685969
 C         2.339453        -1.134664        -0.354766
 O         1.591150        -2.170644        -1.052783
 C         2.357290        -0.672013         1.005385
 H        -0.332908         0.989747         0.678807
 H        -0.237454         0.472264        -1.215353
 H        -0.684770        -0.619811         0.185669
 H         2.543737         1.879057        -0.895441
 H         2.176724         2.100346         0.957173
 H         5.150748         1.204010         0.858648
 H         3.727897        -0.136827        -1.818364
 H         4.468444        -1.290144        -0.568587
 H         1.654882        -2.948321        -0.490537
 H         1.957002        -1.176543         1.936857
