19
Iteration:  1674
 C        -0.067997         0.171893        -0.343712
 C         1.447329         0.088844         0.015350
 C         2.456480         1.456527         0.046817
 C         3.430199         0.356427         0.510281
 O         4.549203         0.984122         1.350909
 C         3.714615        -0.636938        -0.728962
 C         2.290550        -1.137089        -0.358916
 O         1.525483        -2.234147        -0.926128
 C         2.261391        -0.603366         1.042302
 H        -0.682400         1.018599         0.292008
 H        -0.277978         0.556389        -1.382594
 H        -0.496996        -0.822510        -0.192098
 H         2.745560         2.072903        -0.835137
 H         2.280524         1.887405         0.981188
 H         4.226741         0.974179         2.287923
 H         3.951918        -0.271742        -1.765827
 H         4.432793        -1.401267        -0.299830
 H         0.608021        -2.002855        -0.909354
 H         1.945458        -0.938823         1.943634
