19
Iteration:   970charge 0 multiplicity 1
 C        -0.060755         0.075679        -0.128948
 C         1.384407         0.152276         0.075755
 C         2.357056         1.400687         0.048763
 C         3.423861         0.414920         0.519254
 O         4.418710         0.869402         1.375910
 C         3.781807        -0.495638        -0.762731
 C         2.316272        -1.047262        -0.501595
 O         1.537778        -2.089228        -0.894533
 C         2.270808        -0.653160         0.951705
 H        -0.645915         0.473494         0.654494
 H        -0.269652         0.452095        -1.139288
 H        -0.364143        -0.978681        -0.172915
 H         2.589134         1.926894        -0.888836
 H         2.251404         2.237705         0.655924
 H         5.178411         0.355250         1.140670
 H         4.114331        -0.041390        -1.740075
 H         4.608182        -1.193755        -0.649556
 H         1.788918        -3.032064        -0.652105
 H         2.063528        -1.408408         1.786314
