19
Iteration:  4532
 C        -0.104428         0.383850        -0.198118
 C         1.371933         0.152600        -0.016755
 C         2.291775         1.408847         0.022222
 C         3.410682         0.455586         0.579846
 O         4.568069         0.799235         1.254551
 C         3.682134        -0.531699        -0.622372
 C         2.162078        -1.094292        -0.439271
 O         1.835269        -2.403062        -0.858618
 C         2.241794        -0.682394         0.986382
 H        -0.467362         1.030733         0.570354
 H        -0.372342         0.779176        -1.180988
 H        -0.605446        -0.666327        -0.184921
 H         2.513120         1.909198        -1.002427
 H         1.937076         2.186949         0.662080
 H         4.462134         1.654289         1.726397
 H         4.082048        -0.231236        -1.612871
 H         4.160788        -1.388700        -0.068634
 H         1.541236        -2.326755        -1.793615
 H         1.944743        -0.980181         1.927975
