19
Iteration:  2200
 C        -0.151885         0.218621        -0.353783
 C         1.356196         0.198132        -0.070179
 C         2.330559         1.432997        -0.082007
 C         3.427474         0.354543         0.519901
 O         4.524604         0.673107         1.326036
 C         3.724066        -0.567405        -0.614124
 C         2.261159        -1.099183        -0.235826
 O         1.698672        -2.201468        -0.840451
 C         2.179801        -0.472242         1.094890
 H        -0.748312         0.985491         0.325256
 H        -0.094594         0.489200        -1.436321
 H        -0.650569        -0.718220        -0.248877
 H         2.788808         1.896574        -0.917969
 H         1.870994         2.265121         0.514257
 H         5.265900         1.304650         1.100317
 H         3.828671        -0.228063        -1.662975
 H         4.507592        -1.226580        -0.399267
 H         2.480479        -2.783898        -1.041875
 H         1.954403        -0.892888         2.020002
