19
Iteration:  4417
 C        -0.075325         0.336406        -0.274985
 C         1.369604         0.211570         0.055937
 C         2.358841         1.334270         0.070872
 C         3.413497         0.355603         0.578393
 O         4.516422         1.025142         1.200542
 C         3.705170        -0.643170        -0.554348
 C         2.243694        -1.151936        -0.429991
 O         1.744504        -2.351325        -0.895637
 C         2.171968        -0.578397         1.017629
 H        -0.789683         0.864148         0.395454
 H        -0.163823         0.677012        -1.321294
 H        -0.284629        -0.688695        -0.336523
 H         2.501435         1.873413        -0.811747
 H         2.036223         2.036468         0.878987
 H         5.288617         0.376884         1.171415
 H         4.055235        -0.232852        -1.586735
 H         4.371562        -1.410797        -0.163580
 H         1.014170        -2.174655        -1.524403
 H         1.860743        -1.042240         1.980544
