19
Iteration:  1210charge 0 multiplicity 1
 C        -0.033860         0.256697        -0.176663
 C         1.503690         0.110335         0.026278
 C         2.372747         1.355585         0.061021
 C         3.414261         0.380454         0.541688
 O         4.404879         0.937008         1.321856
 C         3.677706        -0.581753        -0.785114
 C         2.263746        -1.061287        -0.470239
 O         1.660473        -2.266626        -0.755152
 C         2.278206        -0.690176         0.976676
 H        -0.568588         0.910713         0.546652
 H        -0.284214         0.839868        -1.149987
 H        -0.465908        -0.752119        -0.272049
 H         2.441647         1.868627        -0.861578
 H         1.955673         1.911023         0.857286
 H         4.808730         1.674701         0.919485
 H         3.982248         0.049497        -1.662739
 H         4.363048        -1.390338        -0.478261
 H         1.285972        -2.150702        -1.668654
 H         2.031340        -1.502111         1.750312
