19
Iteration:  3793
 C        -0.107261         0.258918        -0.205368
 C         1.391056         0.122483        -0.127970
 C         2.356052         1.383956        -0.089634
 C         3.415150         0.486611         0.567119
 O         4.554945         0.798308         1.384635
 C         3.779912        -0.699330        -0.696965
 C         2.274711        -1.054624        -0.529007
 O         1.674640        -2.309814        -0.780091
 C         2.222271        -0.457159         1.032558
 H        -0.589543         0.804058         0.556082
 H        -0.473486         0.491686        -1.194608
 H        -0.431464        -0.736300         0.125410
 H         2.868874         1.847723        -1.023031
 H         2.030933         2.146140         0.608518
 H         4.332456         1.505578         1.941842
 H         4.237615        -0.329628        -1.586357
 H         4.240858        -1.494646        -0.195000
 H         0.737301        -2.172596        -0.967212
 H         1.712615        -0.944940         1.770438
