19
Iteration:  1590charge 0 multiplicity 1
 C        -0.059616         0.336736        -0.100311
 C         1.387087         0.198862        -0.092975
 C         2.444759         1.373505        -0.037231
 C         3.419636         0.421361         0.588514
 O         4.492880         0.828158         1.258590
 C         3.664153        -0.648478        -0.582856
 C         2.191608        -1.097392        -0.433590
 O         1.775237        -2.345185        -0.939942
 C         2.149668        -0.552010         1.009784
 H        -0.263323         0.914032         0.722957
 H        -0.497875         0.627541        -1.023403
 H        -0.680840        -0.551004         0.143352
 H         2.619860         1.900748        -0.967953
 H         2.203354         2.221117         0.749803
 H         4.214285         1.483529         1.916916
 H         3.840111        -0.399795        -1.641202
 H         4.224931        -1.471742        -0.159197
 H         2.347741        -2.420656        -1.757355
 H         1.650116        -1.000501         1.816700
