19
Iteration:   631charge 0 multiplicity 1
 C        -0.029813         0.274840        -0.158376
 C         1.401048         0.074804         0.172276
 C         2.283798         1.305426         0.040076
 C         3.443301         0.289925         0.571431
 O         4.488170         1.099804         1.237904
 C         3.697680        -0.584240        -0.681063
 C         2.271726        -1.118759        -0.347886
 O         1.615742        -2.164075        -1.149362
 C         2.276880        -0.687703         1.097985
 H        -0.632783         0.759804         0.553956
 H        -0.103103         0.927868        -1.012569
 H        -0.412586        -0.747966        -0.363086
 H         2.346217         1.644234        -0.978536
 H         1.926417         2.040007         0.794285
 H         5.407045         0.693817         1.078394
 H         3.873838         0.027884        -1.560610
 H         4.394490        -1.435409        -0.525715
 H         1.555220        -2.973658        -0.626666
 H         2.154552        -1.120702         2.005202
