19
Iteration:  2533charge 0 multiplicity 1
 C        -0.124499         0.247134        -0.247298
 C         1.355450         0.213564        -0.034089
 C         2.257639         1.440510         0.048071
 C         3.442685         0.406660         0.536077
 O         4.590097         0.792311         1.296443
 C         3.673300        -0.507166        -0.738026
 C         2.296237        -1.089679        -0.419590
 O         1.758918        -2.369484        -0.789530
 C         2.164711        -0.548904         0.985538
 H        -0.366538         1.231635         0.175638
 H        -0.472742         0.422715        -1.174032
 H        -0.746490        -0.538823         0.272787
 H         2.455373         2.106491        -0.758916
 H         1.743069         2.099504         0.837533
 H         4.874777         0.228479         2.021715
 H         3.875430        -0.001653        -1.644408
 H         4.563225        -1.119494        -0.429285
 H         2.072264        -2.436180        -1.691247
 H         1.946086        -1.278237         1.831726
