19
Iteration:   142charge 0 multiplicity 1
 C         0.011684         0.092776        -0.055341
 C         1.481247         0.138384        -0.005977
 C         2.307437         1.454087         0.010363
 C         3.445659         0.398970         0.472474
 O         4.502439         0.869342         1.253561
 C         3.631275        -0.518159        -0.730635
 C         2.283755        -1.078870        -0.388094
 O         1.536197        -2.164808        -0.925036
 C         2.333978        -0.637119         1.052563
 H        -0.303243         0.988815         0.491453
 H        -0.298541         0.112105        -1.111204
 H        -0.533495        -0.751160         0.390366
 H         2.351520         2.067856        -0.855863
 H         2.014569         1.938000         0.952564
 H         4.191768         0.549452         2.094623
 H         3.653873        -0.095820        -1.687726
 H         4.458254        -1.147201        -0.738559
 H         1.936193        -2.346333        -1.772204
 H         2.282211        -1.354491         1.832481
