19
Iteration:   384charge 0 multiplicity 1
 C        -0.089391         0.233641        -0.070934
 C         1.445655         0.159305        -0.065623
 C         2.418403         1.307982         0.075731
 C         3.454152         0.358603         0.520970
 O         4.385050         0.966563         1.371710
 C         3.685594        -0.588162        -0.800038
 C         2.277895        -1.144102        -0.458224
 O         1.637155        -2.183238        -0.940939
 C         2.267254        -0.634463         0.971248
 H        -0.375637         0.953682         0.736590
 H        -0.602872         0.732317        -0.929487
 H        -0.493577        -0.808373         0.124098
 H         2.666720         2.061313        -0.753049
 H         2.073816         1.877502         1.001334
 H         5.277623         1.088610         0.918698
 H         3.749692         0.040090        -1.838455
 H         4.513318        -1.292722        -0.605548
 H         1.619583        -3.004990        -0.413070
 H         2.007958        -1.062910         1.903220
