19
Iteration:  4810charge 0 multiplicity 1
 C        -0.127830         0.445541        -0.074999
 C         1.413412         0.109940        -0.010451
 C         2.338251         1.282969         0.003787
 C         3.394435         0.310374         0.554124
 O         4.407588         0.912854         1.335323
 C         3.655687        -0.595021        -0.644434
 C         2.304386        -1.101356        -0.467525
 O         1.863338        -2.295452        -0.925460
 C         2.253212        -0.700141         0.955998
 H        -0.343997         0.927791         0.885824
 H        -0.222700         1.124799        -0.926289
 H        -0.764674        -0.352827        -0.385021
 H         2.567423         1.735972        -1.011191
 H         2.022731         1.993801         0.748570
 H         4.072480         1.891864         1.500301
 H         3.992131         0.032662        -1.624953
 H         4.355658        -1.403981        -0.491559
 H         1.664727        -2.299666        -1.866419
 H         1.861772        -1.141161         1.938542
