19
Iteration:  1150charge 0 multiplicity 1
 C        -0.061390         0.210242        -0.190771
 C         1.382753         0.210488        -0.025364
 C         2.349185         1.422458         0.073806
 C         3.387529         0.391418         0.563128
 O         4.499599         0.720922         1.242857
 C         3.589485        -0.509757        -0.673963
 C         2.258988        -1.065571        -0.405911
 O         1.835790        -2.316163        -0.821906
 C         2.215196        -0.539668         1.000502
 H        -0.625808         0.888930         0.442854
 H        -0.251973         0.315949        -1.215883
 H        -0.427127        -0.792741         0.071642
 H         2.394308         2.019573        -0.953078
 H         1.868163         2.127706         0.874396
 H         5.047932         1.231680         0.610963
 H         3.897409         0.083201        -1.538706
 H         4.446664        -1.165213        -0.398126
 H         1.264282        -2.151623        -1.579764
 H         1.876927        -1.049678         1.980488
