19
Iteration:    26
 C        -0.101513         0.095451        -0.050258
 C         1.440596         0.205239         0.058868
 C         2.360784         1.461896         0.093461
 C         3.461059         0.336601         0.501137
 O         4.484149         0.842574         1.266486
 C         3.713344        -0.545196        -0.765244
 C         2.227058        -0.952273        -0.531443
 O         1.554751        -2.244587        -0.813428
 C         2.357266        -0.654630         0.939031
 H        -0.570727         0.462159         0.859661
 H        -0.376945         0.649475        -0.910856
 H        -0.424883        -0.925217        -0.260468
 H         2.532585         2.020775        -0.877269
 H         2.130077         1.957327         0.979199
 H         4.349190         1.774766         1.379155
 H         4.010402        -0.107803        -1.697851
 H         4.465100        -1.311121        -0.660343
 H         1.906330        -2.658268        -1.609922
 H         2.162014        -1.365702         1.726276
