19
Iteration:  1744
 C        -0.078437         0.280321        -0.132541
 C         1.393937         0.247042        -0.164074
 C         2.410482         1.340674        -0.067367
 C         3.449384         0.361983         0.552867
 O         4.473780         0.765648         1.374830
 C         3.638316        -0.612009        -0.635204
 C         2.234123        -1.030058        -0.391806
 O         1.740777        -2.304452        -0.862420
 C         2.167468        -0.510726         1.006440
 H        -0.512558         1.109864         0.379449
 H        -0.605881         0.388931        -1.083704
 H        -0.469017        -0.705868         0.292408
 H         2.591996         2.039734        -0.895869
 H         2.085338         1.796331         0.958025
 H         5.116534         1.251703         0.862726
 H         4.098234        -0.180838        -1.572296
 H         4.298672        -1.395661        -0.204809
 H         1.864686        -2.263944        -1.813050
 H         1.826302        -0.923275         1.982950
