19
Iteration:  4404
 C        -0.122470         0.298674        -0.330725
 C         1.365834         0.168108         0.015664
 C         2.329825         1.416031         0.059651
 C         3.461097         0.425792         0.498925
 O         4.512210         0.926229         1.283193
 C         3.717521        -0.617924        -0.571292
 C         2.261602        -1.089358        -0.367708
 O         1.718367        -2.442671        -0.871781
 C         2.209782        -0.609574         1.042016
 H        -0.507753         0.903367         0.500167
 H        -0.177369         1.074137        -1.135268
 H        -0.946651        -0.428433        -0.488506
 H         2.551380         2.049928        -0.781463
 H         2.161612         2.060219         0.961840
 H         5.299910         0.903812         0.763676
 H         4.056029        -0.190499        -1.569392
 H         4.489419        -1.371001        -0.254172
 H         1.062212        -2.327300        -1.598763
 H         1.956896        -0.893634         1.987262
