19
Iteration:  4541charge 0 multiplicity 1
 C        -0.064372         0.405685        -0.260566
 C         1.385174         0.107559         0.018727
 C         2.272733         1.413815         0.065170
 C         3.391768         0.390237         0.546828
 O         4.555488         0.832544         1.207354
 C         3.618814        -0.606319        -0.640644
 C         2.230262        -1.124678        -0.381720
 O         1.830273        -2.373177        -0.910668
 C         2.236680        -0.592964         1.119774
 H        -0.398821         0.989448         0.601475
 H        -0.054427         1.061491        -1.110391
 H        -0.685262        -0.549553        -0.329007
 H         2.290528         1.878456        -0.923401
 H         1.797541         2.142404         0.676613
 H         4.235595         1.599695         1.729189
 H         4.060227        -0.228876        -1.669058
 H         4.484277        -1.280561        -0.277369
 H         1.635691        -2.366595        -1.870359
 H         1.929845        -1.100236         1.936458
