19
Iteration:   319
 C        -0.121537         0.041035        -0.149622
 C         1.372246         0.256951         0.008118
 C         2.406460         1.434147         0.023259
 C         3.404890         0.389562         0.545741
 O         4.581878         0.752450         1.246019
 C         3.620348        -0.592278        -0.651766
 C         2.296018        -1.050236        -0.385629
 O         1.645343        -2.099781        -0.972668
 C         2.186566        -0.580879         1.073927
 H        -0.749065         0.627635         0.526870
 H        -0.520904        -0.094077        -1.143027
 H        -0.240020        -0.982114         0.355756
 H         2.640583         2.133567        -0.821964
 H         2.047655         2.138254         0.823810
 H         5.058432         1.309783         0.656797
 H         3.795816        -0.060140        -1.651544
 H         4.329472        -1.357830        -0.379796
 H         2.356762        -2.603220        -1.354559
 H         1.973734        -0.902112         2.164401
