19
Iteration:   834
 C        -0.075986         0.018803        -0.220552
 C         1.383013         0.145456        -0.015575
 C         2.380043         1.344168         0.085609
 C         3.460741         0.400209         0.572548
 O         4.508418         0.841305         1.431800
 C         3.589015        -0.397724        -0.868914
 C         2.247062        -0.999709        -0.427305
 O         1.573103        -2.118165        -0.882216
 C         2.377835        -0.637828         0.983660
 H        -0.661317         0.446689         0.649217
 H        -0.368667         0.608157        -1.097035
 H        -0.325839        -1.020574        -0.286074
 H         2.385571         2.137754        -0.684509
 H         2.031197         1.930355         0.895538
 H         5.385120         0.574326         0.988258
 H         3.723912         0.092966        -1.842264
 H         4.374424        -1.178717        -0.842832
 H         1.794667        -2.987548        -0.558218
 H         2.321863        -1.215238         1.794876
