19
Iteration:  3139charge 0 multiplicity 1
 C        -0.126235         0.218021        -0.149445
 C         1.421689         0.224096        -0.178085
 C         2.433152         1.478053        -0.078690
 C         3.409288         0.437882         0.484509
 O         4.528279         0.672826         1.289526
 C         3.728256        -0.579537        -0.639806
 C         2.169956        -1.081306        -0.402443
 O         1.766789        -2.372656        -0.755596
 C         2.133235        -0.415150         0.999073
 H        -0.507992         1.146205         0.401987
 H        -0.562599        -0.007746        -1.092679
 H        -0.440600        -0.573381         0.474762
 H         2.913201         2.037480        -0.879173
 H         1.961645         2.109283         0.629228
 H         4.217675         1.041496         2.205971
 H         3.865140         0.022028        -1.540538
 H         4.550577        -1.240356        -0.303753
 H         1.832293        -2.412953        -1.721117
 H         1.734349        -0.889846         1.976794
