19
Iteration:  3015
 C        -0.139158         0.259457        -0.226748
 C         1.386536         0.226810        -0.056855
 C         2.339485         1.386973        -0.030381
 C         3.450775         0.385216         0.507192
 O         4.575149         0.682577         1.284687
 C         3.662531        -0.580283        -0.687936
 C         2.193688        -1.014744        -0.413247
 O         1.807743        -2.286376        -0.686662
 C         2.161976        -0.501859         0.957441
 H        -0.602401         0.827991         0.571463
 H        -0.443715         0.925519        -1.121716
 H        -0.534382        -0.796951        -0.324324
 H         2.494457         1.994381        -0.989444
 H         1.884182         2.036597         0.665710
 H         4.132610         1.169809         2.092763
 H         3.918484        -0.144120        -1.709245
 H         4.553807        -1.223670        -0.538332
 H         2.006365        -2.464369        -1.611319
 H         2.112759        -1.181571         1.927498
