19
Iteration:  2433
 C        -0.115471         0.106680        -0.175840
 C         1.358777         0.211023        -0.099734
 C         2.360202         1.406995        -0.083144
 C         3.421316         0.437045         0.497068
 O         4.487343         0.870250         1.358801
 C         3.707570        -0.721303        -0.595610
 C         2.322954        -1.079984        -0.327262
 O         1.755850        -2.172990        -0.910315
 C         2.201990        -0.542043         1.022414
 H        -0.491217         0.442970         0.862339
 H        -0.443120         0.786554        -0.977407
 H        -0.680797        -0.861701        -0.306912
 H         2.536115         2.072561        -0.975112
 H         2.145958         2.181432         0.843920
 H         5.295479         0.736556         0.903331
 H         4.066073        -0.526972        -1.586293
 H         4.250418        -1.604531        -0.203467
 H         0.907411        -1.996081        -1.367374
 H         1.752205        -0.776897         1.898412
