19
Iteration:   714
 C        -0.057494         0.124142        -0.047392
 C         1.436745         0.194545         0.055428
 C         2.306897         1.374070        -0.009368
 C         3.439472         0.481918         0.465813
 O         4.394378         0.795561         1.443103
 C         3.687836        -0.498154        -0.856641
 C         2.311638        -1.044503        -0.415893
 O         1.580572        -2.196927        -1.006796
 C         2.403274        -0.554153         0.998280
 H        -0.504743         0.864681         0.711223
 H        -0.437627         0.255125        -1.101366
 H        -0.420058        -0.845075         0.281387
 H         2.469718         1.824801        -1.035552
 H         2.029349         2.207370         0.562727
 H         4.630267        -0.069724         1.781143
 H         3.701297        -0.068215        -1.911609
 H         4.515693        -1.285754        -0.797702
 H         2.147134        -2.961925        -0.703547
 H         2.235795        -0.993517         2.066024
