19
Iteration:  4178charge 0 multiplicity 1
 C        -0.040934         0.264136        -0.292605
 C         1.425379         0.162428        -0.056914
 C         2.354434         1.412274        -0.132333
 C         3.383875         0.383098         0.514398
 O         4.500377         0.935896         1.350357
 C         3.691045        -0.707780        -0.596345
 C         2.256460        -1.118627        -0.319496
 O         1.595945        -2.256785        -0.898523
 C         2.255511        -0.480335         1.097480
 H        -0.721815         0.691339         0.522403
 H        -0.312905         0.930298        -1.175487
 H        -0.494707        -0.667187        -0.559384
 H         2.640261         1.829325        -1.135790
 H         2.159798         2.231752         0.607042
 H         5.015158         0.115351         1.693594
 H         3.985010        -0.187574        -1.513446
 H         4.426695        -1.443455        -0.257775
 H         2.256144        -2.975785        -0.956665
 H         1.900781        -0.935342         2.096291
