19
Iteration:  4726charge 0 multiplicity 1
 C        -0.074599         0.108610        -0.272079
 C         1.419223         0.176081         0.040617
 C         2.339527         1.405415        -0.019370
 C         3.451049         0.356002         0.536880
 O         4.582725         0.798670         1.301432
 C         3.688215        -0.475729        -0.667463
 C         2.259478        -1.053911        -0.338740
 O         1.675204        -2.212181        -0.906740
 C         2.206992        -0.641326         1.087260
 H        -0.843448         0.714642         0.230983
 H        -0.243193         0.393218        -1.330121
 H        -0.465535        -0.962708        -0.059879
 H         2.668837         1.950090        -0.909583
 H         1.929688         2.241232         0.691449
 H         4.362996         1.589933         1.707495
 H         3.811540         0.051828        -1.541930
 H         4.401390        -1.299400        -0.632464
 H         1.294982        -1.952735        -1.778787
 H         1.799512        -1.189904         2.028440
