19
Iteration:  4952
 C        -0.117273         0.404842        -0.215152
 C         1.313437         0.150355        -0.058391
 C         2.344852         1.328040         0.111245
 C         3.417850         0.416298         0.572143
 O         4.447570         0.948775         1.344818
 C         3.633710        -0.570457        -0.567372
 C         2.272115        -1.099650        -0.491789
 O         1.820685        -2.440497        -0.948180
 C         2.278032        -0.644435         1.007882
 H        -0.397580         1.011050         0.674089
 H        -0.327131         0.941966        -1.179718
 H        -0.643136        -0.588736        -0.188287
 H         2.448281         1.971637        -0.864352
 H         2.214546         2.008395         0.955928
 H         5.294841         1.204153         0.762970
 H         3.914115        -0.243232        -1.534327
 H         4.337002        -1.278992        -0.317515
 H         1.374480        -2.289188        -1.790053
 H         2.091033        -1.268342         1.957728
