19
Iteration:   898
 C        -0.262450         0.234621         0.031480
 C         1.329438         0.127809         0.087111
 C         2.337024         1.282366        -0.003788
 C         3.364558         0.339516         0.601452
 O         4.566835         0.904944         1.182078
 C         3.674216        -0.529259        -0.669590
 C         2.267858        -1.037662        -0.400060
 O         1.842620        -2.107729        -1.173845
 C         2.253084        -0.631973         1.062158
 H        -0.622927         0.971136         0.833592
 H        -0.566396         0.502582        -1.002193
 H        -0.818581        -0.663223         0.254014
 H         2.566410         1.667959        -1.045031
 H         1.995111         2.227891         0.589810
 H         4.908309         0.106855         1.664454
 H         4.091441        -0.103215        -1.568068
 H         4.339980        -1.397939        -0.400489
 H         2.263378        -2.917957        -0.764312
 H         2.041327        -1.133647         1.907004
