19
Iteration:    31
 C        -0.131865         0.096783        -0.050387
 C         1.432936         0.169763         0.057773
 C         2.327511         1.481814         0.078594
 C         3.489534         0.347011         0.490143
 O         4.509820         0.847599         1.301639
 C         3.716849        -0.589319        -0.781438
 C         2.261466        -0.984736        -0.519951
 O         1.584148        -2.217832        -0.802979
 C         2.338709        -0.640269         0.932424
 H        -0.573478         0.474148         0.897638
 H        -0.404213         0.749472        -0.961200
 H        -0.517143        -0.916530        -0.278896
 H         2.484315         1.984081        -0.854975
 H         2.057800         2.018551         1.086307
 H         4.454288         1.844212         1.378017
 H         3.890477        -0.061699        -1.801826
 H         4.518970        -1.384189        -0.805977
 H         1.666430        -2.590636        -1.739092
 H         2.011069        -1.338539         1.741243
