19
Iteration:  3078charge 0 multiplicity 1
 C        -0.024952         0.186319        -0.269116
 C         1.407108         0.097032         0.045031
 C         2.471910         1.338250        -0.039455
 C         3.462007         0.329111         0.523598
 O         4.516574         1.029330         1.242665
 C         3.713612        -0.744572        -0.581434
 C         2.224596        -1.123623        -0.301305
 O         1.587641        -2.155371        -0.958879
 C         2.249192        -0.645393         1.105686
 H        -0.536639         0.951017         0.313999
 H        -0.167198         0.646358        -1.273444
 H        -0.544307        -0.819854        -0.138747
 H         2.758546         1.820380        -1.073333
 H         1.999153         2.132550         0.608985
 H         4.088027         1.844896         1.710346
 H         3.896316        -0.300602        -1.576928
 H         4.532930        -1.458282        -0.427143
 H         0.879419        -1.759351        -1.502543
 H         1.705378        -0.864553         2.143814
