19
Iteration:   176
 C        -0.133174         0.060487        -0.093950
 C         1.354138         0.212230         0.134518
 C         2.326197         1.396006        -0.020619
 C         3.505311         0.358170         0.471315
 O         4.579465         0.765752         1.289565
 C         3.684112        -0.494459        -0.733784
 C         2.224462        -0.992478        -0.440066
 O         1.708100        -2.187190        -0.923536
 C         2.279691        -0.619000         1.024311
 H        -0.772405         0.739692         0.489742
 H        -0.377848         0.355786        -1.100813
 H        -0.439468        -0.986889         0.106895
 H         2.441011         1.876939        -0.974690
 H         2.186052         2.188936         0.698324
 H         4.543047         1.644777         1.662897
 H         3.837871         0.055116        -1.603021
 H         4.366326        -1.276775        -0.543315
 H         0.846841        -2.067181        -1.394456
 H         2.200560        -1.414254         1.821473
