19
Iteration:  1073charge 0 multiplicity 1
 C        -0.129490         0.258631        -0.011744
 C         1.354610         0.151725         0.038893
 C         2.389192         1.282353        -0.116960
 C         3.478350         0.390529         0.532421
 O         4.356054         1.031887         1.402445
 C         3.725909        -0.632806        -0.725073
 C         2.309194        -1.137840        -0.415881
 O         1.658907        -2.229370        -0.997504
 C         2.340682        -0.680629         1.021205
 H        -0.511514         0.979651         0.744083
 H        -0.429344         0.736640        -0.930805
 H        -0.557835        -0.736416         0.033149
 H         2.633633         1.703250        -1.019263
 H         2.143735         2.072078         0.662793
 H         5.293336         0.733210         1.129720
 H         3.814470        -0.074728        -1.649566
 H         4.525621        -1.343290        -0.435992
 H         1.379654        -1.821070        -1.829852
 H         2.153985        -1.244460         2.065891
