19
Iteration:  1552
 C        -0.081971         0.196669        -0.272963
 C         1.446917         0.100732         0.050060
 C         2.338342         1.319736        -0.037376
 C         3.440676         0.416034         0.478813
 O         4.535698         0.894291         1.359937
 C         3.761290        -0.615964        -0.630524
 C         2.296768        -1.067306        -0.413994
 O         1.426367        -2.138821        -0.951696
 C         2.355949        -0.595391         1.020766
 H        -0.540148         0.973978         0.500168
 H        -0.287490         0.621774        -1.303407
 H        -0.561447        -0.774952        -0.140858
 H         2.550066         1.740037        -1.090912
 H         2.229227         2.087574         0.688550
 H         4.205153         1.452850         2.163239
 H         4.264685        -0.179462        -1.500459
 H         4.499008        -1.352925        -0.257535
 H         1.850183        -3.008182        -0.760834
 H         2.009361        -1.269302         1.945997
