19
Iteration:  3653
 C        -0.110032         0.288659        -0.138738
 C         1.391569         0.253416        -0.015190
 C         2.386792         1.323332        -0.181422
 C         3.472845         0.340196         0.458432
 O         4.426254         0.816191         1.348547
 C         3.794592        -0.618338        -0.638744
 C         2.235719        -1.066898        -0.369665
 O         1.724033        -2.283441        -0.896260
 C         2.285099        -0.559306         1.015911
 H        -0.619890         0.703672         0.782261
 H        -0.400084         0.915989        -1.024892
 H        -0.552910        -0.681776        -0.228964
 H         2.632438         1.741302        -1.155625
 H         2.166789         2.096734         0.517138
 H         3.953289         1.457994         1.951581
 H         4.104841        -0.160494        -1.591889
 H         4.423465        -1.436828        -0.298482
 H         0.780792        -2.345048        -0.608388
 H         1.950274        -0.926126         1.967070
