19
Iteration:  4271
 C        -0.028252         0.310834        -0.292727
 C         1.377001         0.130269         0.033724
 C         2.404045         1.262501        -0.021602
 C         3.500234         0.317391         0.589915
 O         4.443212         1.061123         1.265087
 C         3.618320        -0.751047        -0.651806
 C         2.196655        -1.092442        -0.349117
 O         1.766107        -2.222159        -0.961468
 C         2.186238        -0.497743         1.120743
 H        -0.387381         1.223040         0.160555
 H        -0.197152         0.373094        -1.376481
 H        -0.652524        -0.600804         0.114425
 H         2.553636         1.680080        -1.017013
 H         2.337827         2.072001         0.710475
 H         5.068958         0.419055         1.533705
 H         3.881654        -0.247039        -1.656511
 H         4.369500        -1.624876        -0.356240
 H         0.784135        -2.199366        -1.004574
 H         2.154468        -1.238461         2.003815
