19
Iteration:    46
 C        -0.134372         0.162688        -0.060857
 C         1.366847         0.146215        -0.017393
 C         2.280432         1.317297         0.059860
 C         3.471137         0.436469         0.469476
 O         4.581088         0.821427         1.366304
 C         3.666842        -0.552788        -0.859069
 C         2.337025        -1.078799        -0.389528
 O         1.663547        -2.217302        -0.856479
 C         2.286005        -0.603548         0.962855
 H        -0.537507         0.455213         0.911401
 H        -0.519306         0.792616        -0.829502
 H        -0.535804        -0.836348        -0.268625
 H         2.364943         1.924321        -0.866151
 H         2.014016         1.933457         0.907261
 H         4.707118         1.775162         1.235550
 H         3.879181        -0.137519        -1.856598
 H         4.469019        -1.283199        -0.655152
 H         1.104784        -1.803472        -1.520193
 H         2.171610        -0.996655         1.924282
