19
Iteration:   547
 C        -0.097133         0.098028        -0.055108
 C         1.387589         0.201085        -0.040411
 C         2.373583         1.387344        -0.066020
 C         3.413499         0.370891         0.522346
 O         4.542000         0.745588         1.276685
 C         3.625984        -0.507833        -0.737184
 C         2.267198        -1.025898        -0.430763
 O         1.730493        -2.149028        -0.935304
 C         2.182720        -0.502889         1.097637
 H        -0.493779         0.900646         0.600478
 H        -0.525581         0.049124        -1.095487
 H        -0.521123        -0.886099         0.351174
 H         2.637198         1.866224        -1.022084
 H         2.126692         2.280031         0.627742
 H         4.579073         0.147808         1.995901
 H         3.555116         0.032509        -1.654985
 H         4.559145        -1.108605        -0.782697
 H         2.433119        -2.832728        -0.786393
 H         1.761621        -0.807372         1.931038
