19
Iteration:  1394charge 0 multiplicity 1
 C        -0.099914         0.036804        -0.129209
 C         1.403461         0.200173        -0.077919
 C         2.369926         1.435576        -0.059336
 C         3.414192         0.383278         0.458383
 O         4.453280         0.761034         1.298360
 C         3.756954        -0.657822        -0.549799
 C         2.311300        -1.073953        -0.371786
 O         1.613432        -2.102143        -0.870341
 C         2.213237        -0.456059         0.994926
 H        -0.591474         0.518972         0.729096
 H        -0.746204         0.527949        -0.827254
 H        -0.228771        -1.084130        -0.161714
 H         2.713220         2.003784        -0.892000
 H         2.134160         2.009222         0.865536
 H         5.137976         1.213482         0.792072
 H         4.114803        -0.359587        -1.563734
 H         4.441234        -1.421532        -0.136588
 H         2.067203        -2.173732        -1.745534
 H         1.765287        -0.762346         2.030310
