19
Iteration:  1877charge 0 multiplicity 1
 C        -0.062182         0.209136        -0.328896
 C         1.382905         0.212880         0.099877
 C         2.449681         1.358701         0.010130
 C         3.434722         0.392304         0.558679
 O         4.526851         0.880418         1.175559
 C         3.654071        -0.620633        -0.602366
 C         2.297634        -1.070399        -0.301558
 O         1.659062        -2.207790        -0.985437
 C         2.159094        -0.602222         1.086106
 H        -0.672707         0.997136         0.023532
 H         0.088155         0.266763        -1.450219
 H        -0.411917        -0.816128         0.024269
 H         2.810105         1.771123        -0.902122
 H         2.352085         2.288956         0.598100
 H         4.422827         0.761611         2.125449
 H         3.989989        -0.230134        -1.537489
 H         4.330202        -1.452455        -0.397360
 H         0.743292        -2.341299        -0.766335
 H         1.897609        -1.131801         2.089592
