19
Iteration:  2499charge 0 multiplicity 1
 C        -0.073239         0.279535        -0.178948
 C         1.395442         0.120501        -0.002464
 C         2.357149         1.324652        -0.000543
 C         3.414507         0.322621         0.569248
 O         4.424645         0.969701         1.244216
 C         3.719298        -0.651341        -0.720684
 C         2.259797        -1.050162        -0.417005
 O         1.729228        -2.250921        -0.859675
 C         2.240836        -0.559395         1.019772
 H        -0.312788         0.850989         0.744508
 H        -0.232140         0.751620        -1.077000
 H        -0.710471        -0.625412        -0.103928
 H         2.508207         1.916819        -0.883461
 H         2.064605         1.973048         0.904034
 H         4.381238         0.586004         2.176889
 H         4.021793        -0.221612        -1.661021
 H         4.417273        -1.483051        -0.464381
 H         1.863439        -2.170158        -1.813587
 H         2.082486        -1.084606         1.909259
