19
Iteration:  1341
 C        -0.082501         0.364839        -0.328203
 C         1.372130         0.105885         0.005716
 C         2.289311         1.315762         0.137436
 C         3.391818         0.293549         0.524591
 O         4.480883         0.896615         1.192938
 C         3.671353        -0.496643        -0.741996
 C         2.279923        -1.042694        -0.419411
 O         1.798782        -2.303031        -0.732954
 C         2.273848        -0.622626         1.062309
 H        -0.599666         1.098087         0.291624
 H        -0.231197         0.574933        -1.386461
 H        -0.676679        -0.498560        -0.109919
 H         2.498175         2.049297        -0.809222
 H         2.066320         2.067968         0.924929
 H         4.888966         0.280394         1.781170
 H         3.788021         0.003574        -1.689778
 H         4.464574        -1.229891        -0.799749
 H         1.014873        -2.040326        -1.285741
 H         2.278509        -1.393453         1.961660
