19
Iteration:  4710
 C        -0.041542         0.237828        -0.244489
 C         1.414624         0.150425         0.031979
 C         2.356297         1.372206         0.109831
 C         3.398779         0.460544         0.595055
 O         4.560115         0.916830         1.249217
 C         3.650645        -0.573685        -0.604429
 C         2.228247        -1.091234        -0.455707
 O         1.683088        -2.350165        -0.956665
 C         2.236560        -0.648168         0.994722
 H        -0.330209         1.161982         0.295062
 H        -0.232152         0.309259        -1.331939
 H        -0.492554        -0.598944         0.202180
 H         2.468294         1.823528        -0.896164
 H         2.141598         2.042008         0.877132
 H         4.255917         1.439709         2.037885
 H         3.919424        -0.164251        -1.701551
 H         4.447729        -1.224953        -0.213753
 H         1.274795        -2.139491        -1.816171
 H         2.049084        -1.188475         1.860972
