19
Iteration:  3420charge 0 multiplicity 1
 C        -0.128345         0.211750        -0.203244
 C         1.410930         0.163335        -0.066579
 C         2.394154         1.311550        -0.051135
 C         3.482835         0.446234         0.491819
 O         4.567506         0.867607         1.320685
 C         3.757488        -0.666612        -0.556462
 C         2.227934        -1.044087        -0.413084
 O         1.660346        -2.262826        -0.915102
 C         2.233622        -0.527632         1.017890
 H        -0.563123         0.711001         0.623039
 H        -0.394526         0.756262        -1.147640
 H        -0.673548        -0.720601        -0.232136
 H         2.520322         1.734233        -1.108031
 H         2.023726         2.164118         0.741782
 H         4.165974         1.475837         1.886136
 H         3.996028        -0.498793        -1.631303
 H         4.424093        -1.439437        -0.116794
 H         0.720441        -2.052402        -0.907776
 H         1.917470        -1.115469         1.887834
