19
Iteration:  4641
 C        -0.037360         0.206410        -0.102693
 C         1.394926         0.219997        -0.072437
 C         2.353722         1.419224        -0.128548
 C         3.433359         0.413718         0.514809
 O         4.489529         0.695795         1.389175
 C         3.615959        -0.491233        -0.654214
 C         2.226254        -1.069475        -0.418392
 O         1.769631        -2.329183        -0.911676
 C         2.247929        -0.518756         1.020962
 H        -0.350929         0.934718         0.622312
 H        -0.542108         0.318418        -1.062048
 H        -0.300370        -0.801196         0.392286
 H         2.790595         1.818684        -1.054223
 H         2.091130         2.158550         0.632433
 H         4.062049         1.443605         1.992013
 H         3.721489        -0.103652        -1.779432
 H         4.462509        -1.251541        -0.359829
 H         1.648120        -2.355763        -1.866640
 H         1.771273        -0.766739         2.048313
