19
Iteration:  2339
 C        -0.055857         0.168524        -0.222759
 C         1.448754         0.214824        -0.073939
 C         2.345505         1.447851        -0.012435
 C         3.358156         0.367448         0.609031
 O         4.532065         0.810848         1.304103
 C         3.681416        -0.595354        -0.654229
 C         2.311958        -1.035445        -0.438439
 O         1.618766        -2.244184        -0.812231
 C         2.214343        -0.615065         1.007998
 H        -0.603037         0.948279         0.226184
 H        -0.398142        -0.132130        -1.284193
 H        -0.484347        -0.685779         0.397040
 H         2.734984         1.936631        -0.922546
 H         2.197518         2.187837         0.730691
 H         4.681852         1.795126         1.444341
 H         3.953609        -0.228303        -1.678848
 H         4.399296        -1.445840        -0.361513
 H         1.893109        -2.382463        -1.716593
 H         1.870467        -1.067627         1.838254
