19
Iteration:  2164
 C        -0.006549         0.073491        -0.294821
 C         1.480280         0.179616        -0.017159
 C         2.425131         1.363998        -0.081125
 C         3.499198         0.396365         0.568817
 O         4.477411         0.835873         1.368566
 C         3.721760        -0.689127        -0.599854
 C         2.232010        -1.038600        -0.343216
 O         1.484704        -2.087974        -0.954680
 C         2.193477        -0.490683         1.049860
 H        -0.600736         0.902559        -0.026477
 H        -0.353311        -0.058696        -1.378684
 H        -0.377849        -0.869852         0.180550
 H         2.786183         1.829323        -1.033835
 H         2.106384         2.054014         0.779856
 H         4.457438         1.831008         1.146492
 H         3.982696        -0.320271        -1.579045
 H         4.338041        -1.572637        -0.304612
 H         2.053937        -2.860824        -0.737667
 H         1.975958        -1.006259         2.062500
