19
Iteration:  4424charge 0 multiplicity 1
 C        -0.042888         0.290049        -0.269399
 C         1.407926         0.226029         0.005080
 C         2.374237         1.309297         0.060366
 C         3.384311         0.393978         0.612056
 O         4.508669         1.021358         1.166424
 C         3.680222        -0.667284        -0.592778
 C         2.225379        -1.112480        -0.406929
 O         1.759679        -2.296853        -0.890428
 C         2.157725        -0.612221         1.082374
 H        -0.748180         0.836784         0.351150
 H        -0.255481         0.661189        -1.298917
 H        -0.501960        -0.804134        -0.187846
 H         2.579435         1.871971        -0.923673
 H         2.102191         2.037547         0.850353
 H         5.061279         0.322949         1.440368
 H         4.155123        -0.325695        -1.486235
 H         4.361996        -1.525708        -0.288930
 H         1.080752        -1.957379        -1.532471
 H         1.943289        -1.202809         1.892319
