19
Iteration:  1690
 C         0.006533         0.158973        -0.347922
 C         1.450815         0.152472        -0.034728
 C         2.325583         1.314234         0.060025
 C         3.456850         0.378610         0.572265
 O         4.494331         0.929921         1.228515
 C         3.677605        -0.710068        -0.606750
 C         2.288220        -1.080790        -0.340487
 O         1.597267        -2.107009        -0.937910
 C         2.286052        -0.588179         1.093429
 H        -0.464886         0.910274         0.223269
 H        -0.135892         0.442911        -1.397876
 H        -0.663428        -0.704724        -0.126232
 H         2.499712         1.930945        -0.840366
 H         1.947937         2.121011         0.810258
 H         4.602510         0.554720         2.077345
 H         3.926415        -0.317580        -1.605545
 H         4.492947        -1.418139        -0.470463
 H         0.709648        -1.772324        -1.113941
 H         2.037684        -0.985996         2.159064
