19
Iteration:  4906charge 0 multiplicity 1
 C        -0.069787        -0.045345        -0.313763
 C         1.422191         0.158080        -0.012070
 C         2.306409         1.464758        -0.041446
 C         3.435185         0.412847         0.510389
 O         4.521537         0.660013         1.411231
 C         3.707116        -0.496960        -0.687459
 C         2.283990        -1.022891        -0.395500
 O         1.560589        -2.104392        -0.813900
 C         2.320572        -0.500850         1.056519
 H        -0.765333         0.660744         0.234063
 H        -0.231327         0.065512        -1.441314
 H        -0.306418        -1.045394        -0.085770
 H         2.535185         2.033421        -0.995557
 H         1.894463         2.122725         0.747894
 H         4.618772         1.639030         1.583162
 H         4.024069        -0.135878        -1.613883
 H         4.436614        -1.269443        -0.478996
 H         1.587736        -1.987188        -1.773651
 H         2.333820        -1.183377         1.997313
