19
Iteration:  4628
 C        -0.102110         0.099116        -0.082939
 C         1.439399         0.205168        -0.148237
 C         2.436709         1.428934        -0.063265
 C         3.382560         0.405933         0.495244
 O         4.479276         0.684685         1.378391
 C         3.678041        -0.592479        -0.720459
 C         2.322116        -1.089736        -0.347009
 O         1.731295        -2.196711        -0.834778
 C         2.146820        -0.453177         0.970473
 H        -0.612805         0.736776         0.648535
 H        -0.564240         0.365642        -1.040162
 H        -0.429700        -0.989320         0.044287
 H         2.612070         2.052672        -0.939823
 H         1.919026         2.119816         0.710430
 H         4.333302         1.470646         1.829012
 H         3.885226        -0.069330        -1.699069
 H         4.521250        -1.307100        -0.481942
 H         1.630311        -1.964565        -1.791267
 H         2.011411        -0.847868         1.899206
