19
Iteration:    91
 C        -0.143474         0.229518        -0.027958
 C         1.335101         0.214201         0.069673
 C         2.318976         1.318354         0.030549
 C         3.478099         0.369551         0.484487
 O         4.532502         0.875062         1.256401
 C         3.611798        -0.560193        -0.690904
 C         2.221626        -1.048627        -0.371647
 O         1.817435        -2.161981        -1.077483
 C         2.220365        -0.607032         1.056329
 H        -0.643130         0.740457         0.806492
 H        -0.559208         0.433620        -0.995578
 H        -0.425040        -0.827008         0.132743
 H         2.515158         1.770734        -0.990683
 H         2.087135         2.040194         0.780326
 H         5.320435         0.798639         0.667894
 H         3.865828        -0.333386        -1.769093
 H         4.394419        -1.348178        -0.419532
 H         1.593822        -2.938238        -0.560487
 H         2.054833        -1.294212         1.992917
