19
Iteration:  3085charge 0 multiplicity 1
 C        -0.017602         0.190986        -0.250408
 C         1.425289         0.165146         0.059428
 C         2.406913         1.314383        -0.094918
 C         3.434060         0.327678         0.515478
 O         4.488574         0.999794         1.262984
 C         3.707965        -0.689114        -0.544521
 C         2.259417        -1.142135        -0.342881
 O         1.556145        -2.189671        -0.966049
 C         2.277166        -0.615737         1.081985
 H        -0.605934         1.002495         0.366025
 H        -0.137694         0.412635        -1.316825
 H        -0.421864        -0.779212        -0.063276
 H         2.878495         1.650989        -0.946739
 H         2.407685         2.224127         0.643191
 H         4.101110         1.810111         1.746197
 H         4.036263        -0.243207        -1.519193
 H         4.486868        -1.481890        -0.312388
 H         0.847404        -1.753915        -1.437103
 H         2.085979        -0.995721         2.117551
