19
Iteration:  4406
 C        -0.120709         0.303723        -0.326273
 C         1.355153         0.169137         0.038771
 C         2.331361         1.415354         0.060316
 C         3.467874         0.395913         0.498912
 O         4.514761         0.946955         1.270955
 C         3.715958        -0.621042        -0.551933
 C         2.273114        -1.085435        -0.368445
 O         1.714904        -2.437112        -0.883456
 C         2.205289        -0.606026         1.015523
 H        -0.538197         0.914535         0.511794
 H        -0.157276         1.021843        -1.180788
 H        -0.820904        -0.467141        -0.472728
 H         2.558913         2.005509        -0.759026
 H         2.137559         2.056822         0.958899
 H         5.318616         0.819666         0.823013
 H         4.023926        -0.156974        -1.584182
 H         4.456406        -1.333098        -0.206322
 H         1.024727        -2.396135        -1.601206
 H         1.898611        -0.861865         2.033139
