19
Iteration:  2018
 C        -0.036013         0.184063        -0.399169
 C         1.440066         0.183788        -0.047643
 C         2.387504         1.297165         0.003860
 C         3.485528         0.310725         0.530751
 O         4.573180         0.943737         1.322774
 C         3.701152        -0.654507        -0.594381
 C         2.225570        -1.068247        -0.333386
 O         1.567656        -2.194768        -0.845963
 C         2.271166        -0.591785         1.056366
 H        -0.681789         0.519613         0.368631
 H        -0.288949         0.933172        -1.173221
 H        -0.512571        -0.843584        -0.646841
 H         2.687505         1.923996        -0.952195
 H         2.119662         2.043365         0.768613
 H         4.167733         1.679646         1.766622
 H         3.892769        -0.333978        -1.644985
 H         4.424761        -1.439794        -0.349443
 H         0.769817        -1.866024        -1.264539
 H         1.790970        -1.109967         2.025287
