19
Iteration:  4172
 C        -0.076029         0.283803        -0.314218
 C         1.420359         0.106559        -0.089793
 C         2.350457         1.336191        -0.110198
 C         3.465323         0.404165         0.564549
 O         4.505850         0.970386         1.346772
 C         3.646880        -0.677852        -0.577254
 C         2.273566        -1.097774        -0.311029
 O         1.561870        -2.239272        -0.909552
 C         2.291746        -0.502560         1.072313
 H        -0.537595         0.749462         0.533561
 H        -0.197014         0.944865        -1.148131
 H        -0.489126        -0.749477        -0.514795
 H         2.518624         1.839671        -1.063970
 H         2.083207         2.127135         0.569489
 H         4.933022         0.170203         1.744574
 H         3.964313        -0.419314        -1.628441
 H         4.349746        -1.470064        -0.158509
 H         2.235129        -2.918960        -1.000939
 H         1.893630        -0.763556         1.979394
