19
Iteration:   106
 C        -0.281784         0.149872        -0.013980
 C         1.348549         0.111276        -0.015021
 C         2.410029         1.345136         0.065939
 C         3.456557         0.354856         0.521506
 O         4.543481         0.932558         1.217588
 C         3.709342        -0.602134        -0.677371
 C         2.233082        -1.020777        -0.442537
 O         1.707083        -2.162344        -1.048330
 C         2.274013        -0.569007         1.041715
 H        -0.580661         1.046672         0.555001
 H        -0.672531         0.533970        -1.001937
 H        -0.747953        -0.770620         0.342792
 H         2.566943         2.131874        -0.728464
 H         2.196588         2.036471         0.959047
 H         5.302557         0.361306         1.157102
 H         3.843788         0.074567        -1.534268
 H         4.248408        -1.525282        -0.421958
 H         2.242987        -2.839499        -0.606597
 H         2.102976        -1.167428         1.915026
