19
Iteration:   410
 C        -0.140191         0.139891        -0.023790
 C         1.396182         0.224733        -0.020942
 C         2.329114         1.415384        -0.055448
 C         3.474078         0.455387         0.509086
 O         4.478865         0.751040         1.406062
 C         3.681895        -0.495507        -0.678842
 C         2.233262        -1.009438        -0.584825
 O         1.672517        -2.278319        -0.867016
 C         2.275169        -0.525956         0.881428
 H        -0.454698         0.475355         0.991468
 H        -0.605945         0.703288        -0.831804
 H        -0.507418        -0.848527        -0.133981
 H         2.499670         1.939157        -1.018527
 H         2.094776         2.198225         0.612072
 H         5.360258         0.460418         1.034997
 H         4.068693        -0.044904        -1.596725
 H         4.331285        -1.332906        -0.264046
 H         2.161379        -2.974880        -0.416173
 H         1.941157        -1.157733         1.793620
