19
Iteration:  2007
 C         0.004959         0.221442        -0.333915
 C         1.452637         0.142720        -0.020623
 C         2.376522         1.406296        -0.032040
 C         3.468412         0.403892         0.612276
 O         4.531549         0.938872         1.252146
 C         3.685371        -0.737698        -0.557882
 C         2.218911        -1.119717        -0.329198
 O         1.587605        -2.177290        -0.946396
 C         2.262984        -0.642606         1.091813
 H        -0.530222         0.695696         0.441844
 H        -0.002281         0.759354        -1.310389
 H        -0.504606        -0.798386        -0.646707
 H         2.648732         1.789819        -1.118121
 H         1.923166         2.163219         0.617837
 H         4.153933         1.600376         1.797957
 H         4.022857        -0.323064        -1.545603
 H         4.326457        -1.550549        -0.180266
 H         0.642804        -1.939861        -1.134316
 H         2.094929        -1.246794         2.140581
