19
Iteration:  1802
 C        -0.116597         0.315933        -0.126426
 C         1.435617         0.172967        -0.043288
 C         2.458110         1.291330        -0.167062
 C         3.446023         0.311952         0.539209
 O         4.448452         0.834314         1.370101
 C         3.664444        -0.621886        -0.725201
 C         2.249206        -1.009330        -0.482749
 O         1.729178        -2.244193        -0.788747
 C         2.261309        -0.573185         1.038027
 H        -0.533093         0.578447         0.804756
 H        -0.305532         1.035037        -0.954183
 H        -0.509088        -0.639484        -0.371918
 H         2.638278         1.875211        -1.125497
 H         2.085576         2.136819         0.550066
 H         4.009474         1.147659         2.231531
 H         4.019517        -0.132656        -1.674489
 H         4.369833        -1.452370        -0.368194
 H         1.160680        -2.252788        -1.616935
 H         1.766105        -0.967917         1.954569
