19
Iteration:   152charge 0 multiplicity 1
 C        -0.080152         0.067945        -0.091426
 C         1.428188         0.106236         0.063033
 C         2.348512         1.371905         0.020416
 C         3.441034         0.404968         0.481518
 O         4.490155         0.817832         1.302998
 C         3.658478        -0.531874        -0.868735
 C         2.282048        -1.065332        -0.403460
 O         1.576418        -2.133127        -0.907326
 C         2.395704        -0.589705         1.077734
 H        -0.502990         0.962163         0.383127
 H        -0.426930         0.240521        -1.133958
 H        -0.518432        -0.845373         0.322418
 H         2.613624         1.956869        -0.856722
 H         2.040927         2.136123         0.798778
 H         4.327084         1.037916         2.219717
 H         3.644644         0.015319        -1.788565
 H         4.472507        -1.183696        -0.692865
 H         1.602887        -2.127405        -1.856394
 H         2.309232        -0.892563         2.043436
