19
Iteration:  4185
 C        -0.044981         0.239492        -0.275372
 C         1.424824         0.274987         0.008498
 C         2.419048         1.460774        -0.149815
 C         3.355041         0.390569         0.487413
 O         4.448215         0.859099         1.317910
 C         3.750927        -0.688808        -0.608343
 C         2.217431        -1.149039        -0.351096
 O         1.658242        -2.256082        -0.864042
 C         2.140010        -0.486125         1.105079
 H        -0.636255         0.541118         0.560908
 H        -0.239211         0.849076        -1.149345
 H        -0.473644        -0.749061        -0.590635
 H         2.750907         1.773110        -1.132024
 H         2.115519         2.248326         0.606721
 H         5.051573         0.148006         1.559418
 H         3.997833        -0.131790        -1.515936
 H         4.529334        -1.395003        -0.373251
 H         2.275909        -3.027889        -0.802585
 H         2.077878        -0.968513         2.099253
