19
Iteration:   304charge 0 multiplicity 1
 C         0.015419        -0.023712        -0.054188
 C         1.441569         0.269337        -0.070485
 C         2.390718         1.464315         0.106576
 C         3.404900         0.390819         0.515009
 O         4.490275         0.730866         1.301846
 C         3.644432        -0.536776        -0.693038
 C         2.174062        -1.024443        -0.416135
 O         1.590577        -2.231746        -0.957591
 C         2.246356        -0.438555         0.991191
 H        -0.546488         0.711946         0.601655
 H        -0.288661         0.114163        -1.175446
 H        -0.326130        -1.079189         0.232423
 H         2.643314         1.971170        -0.850034
 H         2.158156         2.074296         1.074046
 H         5.102691         1.340500         0.805566
 H         3.916653        -0.111012        -1.803864
 H         4.502640        -1.243731        -0.456930
 H         2.262978        -2.815088        -1.314269
 H         1.773900        -0.731152         1.952182
