19
Iteration:  1077charge 0 multiplicity 1
 C        -0.108333         0.238674         0.004603
 C         1.394164         0.169883         0.071743
 C         2.382377         1.315255        -0.128636
 C         3.474035         0.390924         0.517887
 O         4.319197         0.993011         1.387886
 C         3.739306        -0.595798        -0.690636
 C         2.337320        -1.168461        -0.418924
 O         1.621048        -2.210312        -0.997418
 C         2.348730        -0.673464         1.020406
 H        -0.554119         0.893060         0.808261
 H        -0.407939         0.637051        -1.017727
 H        -0.568006        -0.834653         0.031233
 H         2.783685         1.695514        -1.134434
 H         2.157884         2.115114         0.565000
 H         5.208543         0.804359         1.180756
 H         3.823568        -0.110413        -1.708088
 H         4.463995        -1.398034        -0.453947
 H         1.420704        -1.890801        -1.920531
 H         2.121902        -1.128566         2.010856
