19
Iteration:  3039charge 0 multiplicity 1
 C        -0.181138         0.247402        -0.286722
 C         1.420666         0.220856         0.034453
 C         2.355802         1.437291         0.008291
 C         3.404548         0.411465         0.587381
 O         4.578709         0.767364         1.119608
 C         3.719069        -0.576900        -0.510602
 C         2.263100        -1.080205        -0.428566
 O         1.714171        -2.324852        -0.824573
 C         2.207712        -0.624354         1.040316
 H        -0.793526         0.801130         0.487851
 H        -0.247250         0.921489        -1.179871
 H        -0.617688        -0.715379        -0.529941
 H         2.538656         1.962400        -0.907057
 H         1.977308         2.156417         0.791494
 H         4.448971         1.557756         1.662706
 H         4.276846        -0.234060        -1.450129
 H         4.424534        -1.290398        -0.031626
 H         1.426665        -2.303885        -1.747540
 H         1.920586        -0.945336         1.968762
