19
Iteration:  4838charge 0 multiplicity 1
 C        -0.134913         0.442261        -0.080593
 C         1.381639         0.100994         0.052070
 C         2.288036         1.333820        -0.067816
 C         3.384886         0.395512         0.528972
 O         4.490163         0.907455         1.303945
 C         3.722285        -0.555535        -0.567913
 C         2.295499        -1.154501        -0.422320
 O         1.823150        -2.388482        -1.055493
 C         2.252706        -0.634333         1.001485
 H        -0.391306         1.322976         0.553089
 H        -0.262510         0.695333        -1.169378
 H        -0.871156        -0.419841         0.026079
 H         2.402921         1.887726        -0.990396
 H         1.974705         2.083471         0.749117
 H         4.048239         1.146485         2.220938
 H         4.142310        -0.104548        -1.407841
 H         4.489634        -1.290111        -0.185379
 H         1.316703        -2.186032        -1.861509
 H         2.176694        -1.160002         1.877297
