19
Iteration:  2264
 C        -0.096069         0.274585        -0.151009
 C         1.426353         0.180630        -0.078196
 C         2.394733         1.286355        -0.068224
 C         3.449391         0.295640         0.531648
 O         4.382884         0.993029         1.297096
 C         3.762818        -0.691351        -0.649845
 C         2.280976        -1.079321        -0.376774
 O         1.720548        -2.217559        -0.945278
 C         2.212922        -0.552330         1.035792
 H        -0.492416         0.709158         0.717303
 H        -0.269878         0.894918        -1.101228
 H        -0.728310        -0.556632        -0.408417
 H         2.779856         1.580047        -1.090155
 H         1.982436         2.198095         0.574700
 H         4.651244         0.464216         2.049545
 H         4.037215        -0.035313        -1.498993
 H         4.528201        -1.444171        -0.386126
 H         1.040120        -2.558807        -0.309284
 H         1.957671        -0.797341         2.012983
