19
Iteration:  1098charge 0 multiplicity 1
 C         0.048925         0.011716         0.009617
 C         1.434719         0.208842         0.005512
 C         2.369180         1.390224        -0.150773
 C         3.421182         0.406271         0.459208
 O         4.301245         0.846003         1.411721
 C         3.780175        -0.638142        -0.685435
 C         2.252566        -1.020732        -0.443907
 O         1.552146        -2.128855        -0.941979
 C         2.287756        -0.538049         1.029965
 H        -0.317821         0.668551         0.848091
 H        -0.424998         0.392246        -0.933582
 H        -0.216112        -1.111332         0.139672
 H         2.416447         1.705101        -1.148991
 H         2.248966         2.211739         0.546973
 H         5.209058         0.635026         1.023303
 H         4.125226        -0.094695        -1.589052
 H         4.500309        -1.264748        -0.162750
 H         1.755552        -2.079902        -1.871242
 H         2.211695        -0.944222         2.064915
