19
Iteration:  3030
 C        -0.166273         0.276231        -0.274697
 C         1.347481         0.227059         0.009453
 C         2.316248         1.434701        -0.004723
 C         3.377701         0.410792         0.531130
 O         4.573923         0.719718         1.184225
 C         3.694184        -0.548676        -0.584690
 C         2.330111        -1.045375        -0.452429
 O         1.741753        -2.341478        -0.757429
 C         2.213523        -0.589024         1.030176
 H        -0.831569         0.794083         0.571439
 H        -0.353637         0.880432        -1.155190
 H        -0.485610        -0.721063        -0.426575
 H         2.602419         1.867693        -0.910933
 H         2.238519         2.305370         0.818345
 H         4.633141         1.372826         1.870847
 H         4.220104        -0.242583        -1.533877
 H         4.255442        -1.409123        -0.117889
 H         1.723133        -2.403458        -1.724568
 H         1.906261        -1.064730         1.849551
