19
Iteration:  3040
 C        -0.172031         0.246451        -0.291326
 C         1.418929         0.214937         0.033515
 C         2.363749         1.432578         0.008923
 C         3.402024         0.412560         0.589338
 O         4.586330         0.773712         1.116171
 C         3.727725        -0.586576        -0.506772
 C         2.246718        -1.085389        -0.418425
 O         1.712939        -2.318836        -0.832918
 C         2.204891        -0.621966         1.039330
 H        -0.794806         0.788649         0.530461
 H        -0.231877         0.884929        -1.189729
 H        -0.630597        -0.689353        -0.533769
 H         2.525288         1.951047        -0.888497
 H         1.929742         2.159687         0.817907
 H         4.401718         1.605707         1.659027
 H         4.246569        -0.203032        -1.458905
 H         4.442724        -1.290363        -0.008974
 H         1.398861        -2.283971        -1.737879
 H         1.939282        -0.935850         1.942477
