19
Iteration:  3359charge 0 multiplicity 1
 C        -0.149911         0.158059        -0.292664
 C         1.352365         0.183257        -0.005963
 C         2.338090         1.398371        -0.014865
 C         3.475093         0.327767         0.585206
 O         4.621774         0.792349         1.236770
 C         3.697684        -0.636581        -0.593116
 C         2.244086        -0.985481        -0.345845
 O         1.672428        -2.204133        -0.864386
 C         2.248283        -0.566219         1.065722
 H        -0.602426         1.197510        -0.056338
 H        -0.365496        -0.032868        -1.338602
 H        -0.582598        -0.671419         0.307848
 H         2.442130         1.836687        -1.087461
 H         2.069684         2.180783         0.619796
 H         4.432185         1.583707         1.736392
 H         3.819611        -0.162148        -1.545164
 H         4.390747        -1.471967        -0.447705
 H         1.545918        -2.159756        -1.812958
 H         1.994532        -0.839754         2.010103
