19
Iteration:  1290charge 0 multiplicity 1
 C        -0.121525         0.154652        -0.079365
 C         1.401200         0.158946        -0.010687
 C         2.429012         1.324558        -0.069146
 C         3.420346         0.395661         0.520459
 O         4.485245         0.918529         1.260330
 C         3.734256        -0.586426        -0.664517
 C         2.265899        -1.078747        -0.403340
 O         1.638404        -2.219244        -0.887163
 C         2.258773        -0.568215         1.011114
 H        -0.490920         0.914371         0.641674
 H        -0.441625         0.352419        -1.169702
 H        -0.711127        -0.716158         0.215502
 H         2.622596         1.767221        -0.997689
 H         2.192653         2.092015         0.631402
 H         4.325570         0.789064         2.176187
 H         3.914258        -0.183546        -1.704886
 H         4.539488        -1.303902        -0.372751
 H         1.716760        -2.040952        -1.860056
 H         2.011899        -1.034485         1.933392
