19
Iteration:   493charge 0 multiplicity 1
 C        -0.046793         0.219862        -0.191082
 C         1.385501         0.090585         0.076545
 C         2.287915         1.225292         0.140705
 C         3.476806         0.339325         0.488945
 O         4.415121         1.056619         1.163580
 C         3.830149        -0.599797        -0.645325
 C         2.305436        -1.044278        -0.447943
 O         1.541408        -2.034137        -0.897943
 C         2.228073        -0.711683         1.001188
 H        -0.598249         1.060702         0.221805
 H        -0.117326         0.597346        -1.204873
 H        -0.544555        -0.773848        -0.085355
 H         2.565027         1.848008        -0.687488
 H         2.205716         1.659454         1.136781
 H         5.168720         0.436266         1.093761
 H         4.338258        -0.369782        -1.555039
 H         4.376409        -1.427865        -0.334091
 H         1.838913        -2.958406        -0.645187
 H         2.156546        -1.216176         1.847393
