19
Iteration:  3833charge 0 multiplicity 1
 C        -0.005907         0.154486        -0.186264
 C         1.476331         0.193323         0.047817
 C         2.467039         1.312582        -0.178656
 C         3.380953         0.411785         0.546757
 O         4.485923         0.859632         1.209712
 C         3.675612        -0.760130        -0.505395
 C         2.212099        -1.049605        -0.354657
 O         1.715809        -2.191407        -1.042868
 C         2.171175        -0.457853         1.200104
 H        -0.436820         0.672581         0.683804
 H        -0.345912         0.662746        -1.096728
 H        -0.461879        -0.909214        -0.279134
 H         2.673153         1.529178        -1.170906
 H         1.919551         2.143282         0.335572
 H         4.299876         1.496721         1.998942
 H         3.862672        -0.562168        -1.639092
 H         4.519650        -1.313218        -0.000390
 H         0.797329        -2.050789        -1.369096
 H         1.739512        -0.589575         2.145164
