19
Iteration:  1221charge 0 multiplicity 1
 C        -0.009815         0.151732        -0.125895
 C         1.389896         0.192263        -0.090343
 C         2.303280         1.357029         0.042438
 C         3.430841         0.366691         0.510725
 O         4.471460         0.851418         1.332210
 C         3.697240        -0.602853        -0.684721
 C         2.313386        -1.045564        -0.446019
 O         1.665973        -2.209504        -0.800225
 C         2.241939        -0.573235         0.974182
 H        -0.417551         0.588673         0.812361
 H        -0.364705         0.664806        -1.088983
 H        -0.446422        -0.852813        -0.133449
 H         2.600712         1.934582        -0.820485
 H         2.103654         2.043849         0.834919
 H         4.659529         1.697383         0.877407
 H         3.869030        -0.243275        -1.739184
 H         4.485686        -1.344872        -0.443742
 H         1.343485        -2.239150        -1.704543
 H         1.879917        -1.246222         1.857194
