19
Iteration:   450charge 0 multiplicity 1
 C        -0.097499         0.124757        -0.132677
 C         1.379596         0.123368         0.020028
 C         2.350949         1.363997        -0.051045
 C         3.428287         0.390027         0.478569
 O         4.595502         0.808074         1.346049
 C         3.582783        -0.563771        -0.687266
 C         2.239313        -1.085615        -0.320724
 O         1.693184        -2.143900        -1.028673
 C         2.211346        -0.450116         1.092243
 H        -0.676781         0.492155         0.719958
 H        -0.450604         0.805659        -0.917549
 H        -0.346888        -0.939391        -0.353115
 H         2.427371         1.866424        -1.049371
 H         1.925444         1.933895         0.771981
 H         5.418878         0.461853         1.035830
 H         3.647784        -0.039209        -1.707878
 H         4.469984        -1.145898        -0.593921
 H         2.203899        -2.921729        -0.700409
 H         1.934417        -0.538414         2.045764
