19
Iteration:  1990charge 0 multiplicity 1
 C         0.005137         0.287065        -0.274767
 C         1.432371         0.153432         0.085677
 C         2.351336         1.279562        -0.075331
 C         3.350899         0.371260         0.537394
 O         4.511362         0.883859         1.187643
 C         3.750435        -0.674196        -0.461310
 C         2.250559        -1.137446        -0.365525
 O         1.684101        -2.198738        -1.075397
 C         2.204096        -0.540262         1.145131
 H        -0.549023         0.978633         0.441026
 H        -0.135193         0.661136        -1.310794
 H        -0.680861        -0.497121        -0.119375
 H         2.608156         1.682663        -0.995212
 H         2.184891         2.146714         0.606194
 H         4.322232         1.450706         1.895281
 H         4.142639        -0.528852        -1.473287
 H         4.489900        -1.356475         0.019539
 H         0.730112        -2.061191        -0.888484
 H         1.940713        -0.888280         2.042930
