19
Iteration:  2926
 C        -0.024176         0.148502        -0.174568
 C         1.395584         0.225043         0.028272
 C         2.403162         1.343146        -0.034274
 C         3.468560         0.364796         0.540271
 O         4.538378         0.950592         1.183719
 C         3.710796        -0.699616        -0.516552
 C         2.217581        -1.057954        -0.297451
 O         1.642926        -2.257790        -1.059764
 C         2.181972        -0.585694         1.092856
 H        -0.518575         0.964732         0.371976
 H        -0.362896         0.322860        -1.291164
 H        -0.596229        -0.772083         0.197697
 H         2.576005         1.783901        -1.103414
 H         2.093294         2.172286         0.590300
 H         4.422370         1.525228         2.031658
 H         4.069643        -0.137643        -1.475118
 H         4.437512        -1.481295        -0.134224
 H         1.250317        -1.812414        -1.822198
 H         1.803846        -1.085365         2.103005
