19
Iteration:  3416charge 0 multiplicity 1
 C        -0.104650         0.194510        -0.210599
 C         1.403019         0.105136        -0.040230
 C         2.392877         1.342543        -0.068644
 C         3.456026         0.424191         0.493656
 O         4.578432         0.857799         1.295030
 C         3.751318        -0.667504        -0.556691
 C         2.234652        -1.004412        -0.370552
 O         1.654235        -2.222300        -0.914466
 C         2.227274        -0.531926         0.990405
 H        -0.521087         0.675699         0.692038
 H        -0.333750         0.579030        -1.192393
 H        -0.693282        -0.804899        -0.280326
 H         2.667224         1.852694        -1.096356
 H         2.102282         2.027821         0.713258
 H         4.140611         1.497154         1.975014
 H         4.064802        -0.505858        -1.608853
 H         4.382014        -1.373748        -0.019719
 H         0.683299        -2.012255        -0.943789
 H         1.783992        -1.027192         1.937228
