19
Iteration:  2462charge 0 multiplicity 1
 C        -0.044629         0.073771        -0.116972
 C         1.423377         0.148428        -0.013379
 C         2.445888         1.376202        -0.135405
 C         3.335671         0.416427         0.582422
 O         4.450124         0.969798         1.306668
 C         3.764527        -0.614968        -0.545490
 C         2.249013        -1.088371        -0.418778
 O         1.607384        -2.249265        -0.995369
 C         2.286361        -0.509076         1.042324
 H        -0.567860         0.436542         0.758048
 H        -0.443163         0.993977        -0.709212
 H        -0.449517        -0.845257        -0.459424
 H         2.739252         1.654036        -1.143116
 H         2.270946         2.244679         0.387709
 H         4.995426         0.328831         1.732308
 H         4.241171        -0.177603        -1.521577
 H         4.227161        -1.525756        -0.194396
 H         0.875853        -1.909775        -1.504343
 H         1.979294        -0.924558         2.054242
