19
Iteration:   434
 C        -0.145663         0.103065        -0.072591
 C         1.388084         0.216918        -0.031184
 C         2.281055         1.434171        -0.103444
 C         3.394753         0.410986         0.497880
 O         4.442906         0.643154         1.286066
 C         3.712876        -0.534472        -0.707412
 C         2.300105        -1.013673        -0.328656
 O         1.765419        -2.139546        -0.949442
 C         2.267083        -0.439123         1.095295
 H        -0.459603         0.343406         0.953190
 H        -0.514161         0.742595        -0.908229
 H        -0.593103        -0.860452        -0.329272
 H         2.491297         1.953814        -1.032162
 H         2.145627         2.322559         0.564037
 H         5.167551         0.157856         0.946606
 H         3.777190        -0.094813        -1.653072
 H         4.327571        -1.448092        -0.469993
 H         2.230264        -2.942185        -0.717187
 H         2.022944        -0.930215         2.178601
