19
Iteration:   588
 C        -0.058250         0.140428         0.008323
 C         1.403983         0.193939        -0.001617
 C         2.326827         1.453886        -0.022555
 C         3.412899         0.452109         0.497758
 O         4.463907         0.892748         1.341323
 C         3.766883        -0.626107        -0.679584
 C         2.246724        -1.031439        -0.551985
 O         1.586526        -2.262665        -0.952781
 C         2.287040        -0.546844         0.915463
 H        -0.512678         0.664812         0.836127
 H        -0.406182         0.667839        -0.915097
 H        -0.393343        -0.958339        -0.047197
 H         2.451372         1.966863        -0.963472
 H         2.062717         2.066192         0.934090
 H         4.744417         0.072951         1.872238
 H         4.061847        -0.111654        -1.615616
 H         4.514747        -1.497866        -0.400636
 H         2.191582        -2.986754        -0.659479
 H         2.149379        -0.956274         1.861005
