19
Iteration:  3924charge 0 multiplicity 1
 C        -0.130018         0.194019        -0.310688
 C         1.392347         0.155017        -0.068330
 C         2.415995         1.399565        -0.145497
 C         3.451489         0.424046         0.537432
 O         4.503483         0.646337         1.339331
 C         3.717516        -0.476882        -0.742002
 C         2.254022        -1.099860        -0.322997
 O         1.630667        -2.277366        -0.703604
 C         2.220406        -0.420193         1.056257
 H        -0.450164         1.028462         0.302453
 H        -0.403131         0.434807        -1.361752
 H        -0.733905        -0.701652        -0.024017
 H         2.824823         2.061808        -0.877983
 H         1.983075         1.998167         0.661293
 H         4.330460         1.199289         2.100736
 H         3.759151         0.045370        -1.790020
 H         4.695544        -0.953937        -0.719238
 H         2.094510        -2.659478        -1.448216
 H         2.201418        -1.045497         2.061014
