19
Iteration:  3203charge 0 multiplicity 1
 C        -0.056940         0.346256        -0.314882
 C         1.346964         0.178936         0.018412
 C         2.325415         1.315483        -0.005219
 C         3.415583         0.382931         0.541778
 O         4.553769         0.875953         1.206506
 C         3.715924        -0.643287        -0.578148
 C         2.258245        -1.061976        -0.387547
 O         1.621465        -2.294759        -0.791119
 C         2.303257        -0.653703         1.056073
 H        -0.661687         0.687155         0.534547
 H        -0.179185         1.047030        -1.193692
 H        -0.419379        -0.606746        -0.651028
 H         2.741042         1.718883        -1.052149
 H         1.959101         2.104532         0.620505
 H         4.217263         1.681233         1.734468
 H         3.991443        -0.160236        -1.523538
 H         4.477817        -1.384469        -0.260418
 H         1.595898        -2.223054        -1.780878
 H         2.085904        -1.118928         2.085863
