19
Iteration:  3132
 C        -0.145894         0.208527        -0.152179
 C         1.383424         0.240274        -0.191187
 C         2.434851         1.430389        -0.109162
 C         3.420361         0.379632         0.519493
 O         4.545090         0.695686         1.332974
 C         3.710144        -0.587324        -0.631942
 C         2.254773        -1.072182        -0.378797
 O         1.747524        -2.310006        -0.760046
 C         2.162929        -0.425316         0.950049
 H        -0.501941         1.158448         0.359663
 H        -0.665579        -0.046744        -1.107596
 H        -0.380245        -0.665109         0.555312
 H         2.499802         1.967764        -1.092669
 H         1.864625         2.118734         0.683132
 H         4.329459         1.163194         2.212332
 H         3.953575        -0.184914        -1.660562
 H         4.479755        -1.329361        -0.329412
 H         1.621990        -2.201747        -1.737551
 H         1.790521        -0.817757         1.993441
