19
Iteration:  3458charge 0 multiplicity 1
 C        -0.040828         0.467398        -0.127439
 C         1.414086         0.148437        -0.074934
 C         2.359382         1.301708        -0.058626
 C         3.470531         0.378334         0.460361
 O         4.407965         0.793118         1.277768
 C         3.583455        -0.618770        -0.660915
 C         2.299449        -1.101034        -0.374819
 O         1.885028        -2.337044        -0.855299
 C         2.164361        -0.569908         1.038628
 H        -0.201027         1.065072         0.922040
 H        -0.346836         0.955236        -1.103542
 H        -0.649621        -0.497476        -0.283218
 H         2.568694         1.710877        -1.007278
 H         2.070609         2.117653         0.597418
 H         4.270719         1.622224         1.846025
 H         3.879086        -0.094825        -1.594860
 H         4.379655        -1.298434        -0.350305
 H         0.986837        -2.549166        -1.116791
 H         1.672164        -0.986099         2.019561
