19
Iteration:   315charge 0 multiplicity 1
 C        -0.073035         0.031177        -0.121848
 C         1.402073         0.246530         0.014021
 C         2.401501         1.429179         0.056191
 C         3.404296         0.393999         0.548389
 O         4.553469         0.740506         1.259901
 C         3.617133        -0.578790        -0.658593
 C         2.279709        -1.053023        -0.413023
 O         1.629778        -2.135354        -0.963472
 C         2.171681        -0.520765         1.022038
 H        -0.778442         0.650408         0.502597
 H        -0.560633        -0.080799        -1.164433
 H        -0.030180        -1.006841         0.318184
 H         2.702480         2.112474        -0.775279
 H         2.135884         2.191519         0.898548
 H         5.005501         1.334492         0.579180
 H         3.765095        -0.047124        -1.723338
 H         4.379316        -1.357954        -0.366194
 H         2.374554        -2.665794        -1.367978
 H         1.939706        -0.762247         2.109967
