19
Iteration:  2265charge 0 multiplicity 1
 C        -0.096888         0.271492        -0.150399
 C         1.436734         0.175394        -0.079122
 C         2.397017         1.284320        -0.073534
 C         3.440725         0.301103         0.531846
 O         4.385727         0.990777         1.294719
 C         3.763427        -0.696936        -0.648119
 C         2.272838        -1.075637        -0.371427
 O         1.722727        -2.212019        -0.949561
 C         2.214272        -0.552543         1.043678
 H        -0.514716         0.695102         0.726363
 H        -0.246330         0.864285        -1.087891
 H        -0.719574        -0.542005        -0.394467
 H         2.746096         1.587647        -1.088443
 H         2.012451         2.190550         0.574021
 H         4.608066         0.486210         2.041336
 H         4.058656        -0.043220        -1.484015
 H         4.502781        -1.423622        -0.387729
 H         1.034296        -2.535255        -0.335902
 H         1.960430        -0.794133         1.989217
