19
Iteration:   657charge 0 multiplicity 1
 C        -0.137560         0.128284        -0.208598
 C         1.358623         0.081321         0.088719
 C         2.277113         1.446157         0.155575
 C         3.414145         0.430528         0.499546
 O         4.552682         0.918240         1.145837
 C         3.703110        -0.631584        -0.574490
 C         2.284327        -1.014472        -0.382115
 O         1.681883        -2.117992        -1.035507
 C         2.255473        -0.640188         1.028974
 H        -0.668634         0.791811         0.553129
 H        -0.187652         0.789792        -1.139550
 H        -0.659525        -0.841246        -0.369765
 H         2.442873         2.168871        -0.666090
 H         1.916218         1.849855         1.146346
 H         5.226040         0.196960         0.943371
 H         4.011066        -0.250724        -1.566356
 H         4.305368        -1.555979        -0.180350
 H         2.109361        -2.895245        -0.669350
 H         2.197071        -1.216110         2.002138
