19
Iteration:   299
 C         0.007609        -0.028870        -0.043380
 C         1.439793         0.265654        -0.118843
 C         2.392006         1.489987         0.083567
 C         3.432877         0.414428         0.477447
 O         4.468086         0.730800         1.345067
 C         3.651360        -0.530418        -0.737799
 C         2.188219        -1.020345        -0.433874
 O         1.554075        -2.256076        -0.943634
 C         2.299501        -0.477986         1.029355
 H        -0.395570         0.679445         0.652038
 H        -0.265338         0.219504        -1.022690
 H        -0.477562        -0.937032         0.188558
 H         2.523467         2.163811        -0.774138
 H         2.037928         1.996558         0.916764
 H         5.160849         1.316584         0.988885
 H         3.897914        -0.089050        -1.601736
 H         4.401632        -1.241388        -0.440667
 H         2.346634        -2.809094        -1.215728
 H         1.781680        -0.816829         1.925611
