19
Iteration:   419
 C        -0.133808         0.138463        -0.017194
 C         1.372520         0.202080        -0.004859
 C         2.351792         1.474493        -0.097401
 C         3.392713         0.485058         0.484351
 O         4.468315         0.670900         1.370325
 C         3.663704        -0.516578        -0.671058
 C         2.264364        -1.031207        -0.499735
 O         1.726492        -2.188154        -0.870652
 C         2.239935        -0.548116         0.923128
 H        -0.609597         0.360203         0.973816
 H        -0.581661         0.721708        -0.806209
 H        -0.424809        -0.897830        -0.209394
 H         2.609160         1.893671        -1.138248
 H         1.967749         2.241086         0.542565
 H         5.203238         0.201472         0.874423
 H         4.187017        -0.218000        -1.714976
 H         4.468063        -1.093967        -0.148567
 H         2.302716        -2.865521        -0.497699
 H         2.249207        -1.080838         1.841010
