19
Iteration:  1653
 C        -0.052827         0.222405        -0.255872
 C         1.462379         0.251310        -0.038608
 C         2.392519         1.358636        -0.028222
 C         3.465744         0.339657         0.577314
 O         4.498580         0.816057         1.351392
 C         3.690139        -0.571598        -0.649457
 C         2.213530        -1.032091        -0.448357
 O         1.670086        -2.304967        -0.858180
 C         2.263976        -0.568997         0.975842
 H        -0.511824         1.003575         0.493762
 H        -0.331911         0.629813        -1.265473
 H        -0.406001        -0.810077        -0.107893
 H         2.540755         1.778397        -1.056548
 H         2.048403         2.040602         0.763635
 H         4.136754         1.432117         1.965515
 H         3.830496        -0.044980        -1.637743
 H         4.297829        -1.459980        -0.423429
 H         0.687328        -2.192887        -0.922309
 H         2.107177        -1.123266         1.826156
