19
Iteration:  4167charge 0 multiplicity 1
 C        -0.090858         0.271606        -0.329944
 C         1.424908         0.098394        -0.104880
 C         2.371971         1.253997        -0.083589
 C         3.521830         0.442721         0.589133
 O         4.496984         0.990987         1.329498
 C         3.656796        -0.650780        -0.566570
 C         2.242451        -1.111518        -0.329450
 O         1.548444        -2.198316        -0.903665
 C         2.297878        -0.532279         1.045362
 H        -0.407603         0.802190         0.639411
 H        -0.114367         0.953572        -1.245427
 H        -0.563538        -0.666984        -0.467525
 H         2.506297         1.804310        -1.060364
 H         1.883081         1.982769         0.645385
 H         4.920298         0.288215         1.823322
 H         3.920998        -0.598645        -1.635874
 H         4.273863        -1.459608        -0.130843
 H         2.209561        -2.927889        -1.025145
 H         1.851553        -0.687144         2.120543
