19
Iteration:  2666charge 0 multiplicity 1
 C        -0.182614         0.310859        -0.127393
 C         1.379835         0.169274        -0.147060
 C         2.371768         1.410686         0.003450
 C         3.364929         0.397147         0.497788
 O         4.501093         0.736489         1.249608
 C         3.706214        -0.586145        -0.642003
 C         2.341686        -1.057178        -0.403608
 O         1.792235        -2.323705        -0.791381
 C         2.190541        -0.555543         1.015850
 H        -0.653579         0.904234         0.729774
 H        -0.392279         0.819058        -1.065859
 H        -0.636344        -0.752568        -0.260926
 H         2.557092         1.822573        -0.948358
 H         2.029793         2.282108         0.658737
 H         4.153760         1.254525         1.967144
 H         4.013262        -0.139426        -1.598698
 H         4.575658        -1.187813        -0.277169
 H         1.868176        -2.303589        -1.742735
 H         2.039795        -0.955141         1.961894
