19
Iteration:  3817
 C        -0.073764         0.155748        -0.154236
 C         1.411817         0.223840        -0.089411
 C         2.415612         1.414673        -0.185551
 C         3.425720         0.319154         0.517791
 O         4.457983         0.813639         1.260254
 C         3.702008        -0.695960        -0.516688
 C         2.269384        -1.111017        -0.295181
 O         1.719236        -2.169524        -0.941415
 C         2.231324        -0.474510         1.046034
 H        -0.702476         0.517019         0.696250
 H        -0.366172         0.595485        -1.134557
 H        -0.365745        -0.857296        -0.122090
 H         2.822904         1.773050        -1.215614
 H         2.440249         2.233404         0.502648
 H         4.112413         1.478288         1.896644
 H         4.103882        -0.242713        -1.370945
 H         4.086805        -1.612476        -0.108592
 H         0.786954        -2.004149        -1.138125
 H         1.980225        -0.744185         2.132487
