19
Iteration:  1074
 C        -0.123725         0.254419        -0.007597
 C         1.360846         0.157937         0.047273
 C         2.388637         1.291367        -0.125798
 C         3.480188         0.392428         0.530463
 O         4.345397         1.022424         1.399093
 C         3.729348        -0.624256        -0.717451
 C         2.317558        -1.147301        -0.418165
 O         1.649090        -2.224850        -0.996881
 C         2.344613        -0.679083         1.019277
 H        -0.526720         0.971465         0.765767
 H        -0.422892         0.712363        -0.950646
 H        -0.563182        -0.778411         0.028664
 H         2.667299         1.684295        -1.009335
 H         2.144441         2.084117         0.647904
 H         5.277393         0.748462         1.137528
 H         3.806340        -0.078643        -1.663032
 H         4.512652        -1.359519        -0.432639
 H         1.390628        -1.828543        -1.860211
 H         2.138970        -1.233692         2.088192
