19
Iteration:  4916charge 0 multiplicity 1
 C        -0.026041         0.010356        -0.330491
 C         1.408947         0.182808         0.017214
 C         2.288593         1.329628         0.011042
 C         3.457085         0.458870         0.493994
 O         4.477939         0.699303         1.388416
 C         3.693203        -0.573555        -0.667792
 C         2.303786        -0.996276        -0.346404
 O         1.625789        -2.091372        -0.824495
 C         2.278099        -0.542232         0.992253
 H        -0.560433         0.785818         0.312472
 H        -0.307949         0.308038        -1.388822
 H        -0.456372        -0.914173        -0.081566
 H         2.367330         1.831425        -0.960255
 H         2.060871         2.096046         0.786370
 H         4.824248         1.688737         1.376201
 H         3.615511         0.009761        -1.551601
 H         4.574875        -1.216145        -0.579500
 H         1.597302        -2.154835        -1.779797
 H         2.093194        -1.172752         1.936805
