19
Iteration:  3508
 C        -0.086802         0.215335        -0.192486
 C         1.364989         0.283837        -0.057115
 C         2.361115         1.372949        -0.081402
 C         3.434821         0.336554         0.541121
 O         4.557542         0.803289         1.219786
 C         3.734384        -0.645852        -0.572154
 C         2.264514        -1.006846        -0.376242
 O         1.734048        -2.259014        -0.851735
 C         2.139087        -0.548873         1.054118
 H        -0.473984         0.959916         0.416757
 H        -0.392439         0.262707        -1.236638
 H        -0.500760        -0.723021         0.097631
 H         2.567109         1.900227        -1.051268
 H         2.017221         2.094660         0.671685
 H         4.346543         1.277947         1.981878
 H         4.014461        -0.349842        -1.588436
 H         4.380310        -1.466414        -0.189111
 H         1.081748        -2.153903        -1.553112
 H         2.069041        -1.168434         1.889995
