19
Iteration:  3837charge 0 multiplicity 1
 C        -0.011691         0.162268        -0.196053
 C         1.464020         0.163363         0.034539
 C         2.420336         1.315914        -0.173415
 C         3.442761         0.400397         0.554651
 O         4.532114         0.893348         1.226760
 C         3.659896        -0.745087        -0.491712
 C         2.227505        -1.088935        -0.350166
 O         1.704163        -2.189444        -1.059425
 C         2.135492        -0.447683         1.189329
 H        -0.420475         0.643979         0.663767
 H        -0.206145         0.719449        -1.111796
 H        -0.547231        -0.818129        -0.184499
 H         2.632165         1.520575        -1.305460
 H         1.927109         2.137619         0.343295
 H         4.396288         1.446850         1.928794
 H         3.739069        -0.509489        -1.561895
 H         4.373456        -1.296743         0.075800
 H         0.818877        -2.106904        -1.425168
 H         1.770194        -0.695545         2.207667
