19
Iteration:  4389charge 0 multiplicity 1
 C        -0.108314         0.401587        -0.283976
 C         1.396978         0.104365        -0.117714
 C         2.312994         1.368822         0.020338
 C         3.380906         0.411075         0.543824
 O         4.491864         0.810346         1.337036
 C         3.670772        -0.606361        -0.694086
 C         2.286157        -1.140533        -0.357911
 O         1.764950        -2.314262        -0.756893
 C         2.272442        -0.531833         1.051262
 H        -0.588810         0.752029         0.639565
 H        -0.273005         1.019687        -1.168549
 H        -0.464259        -0.659839        -0.549548
 H         2.461411         1.997490        -0.956137
 H         1.814447         1.947003         0.791101
 H         5.040959         1.346172         0.756792
 H         3.891506        -0.282245        -1.676179
 H         4.351185        -1.361674        -0.255461
 H         1.310945        -2.142101        -1.620867
 H         2.118967        -1.217967         1.948354
