19
Iteration:  4506charge 0 multiplicity 1
 C        -0.167807         0.182412        -0.103745
 C         1.386860         0.171030        -0.144157
 C         2.416535         1.401764        -0.043598
 C         3.456886         0.307207         0.571893
 O         4.465776         0.739244         1.315239
 C         3.825689        -0.578760        -0.710967
 C         2.269710        -1.008878        -0.480952
 O         1.769635        -2.233623        -0.759120
 C         2.111393        -0.462851         0.970352
 H        -0.452199         1.054198         0.583713
 H        -0.810650         0.159762        -1.013787
 H        -0.500785        -0.719320         0.362652
 H         2.638486         1.846938        -0.981687
 H         2.125552         2.129586         0.748381
 H         4.109362         1.550559         1.823128
 H         4.036979        -0.008527        -1.745226
 H         4.505796        -1.362205        -0.351001
 H         1.490078        -2.199720        -1.696930
 H         1.819804        -1.261312         1.787449
