19
Iteration:   576charge 0 multiplicity 1
 C        -0.129748         0.083689         0.003880
 C         1.375775         0.167922        -0.029361
 C         2.310139         1.484460        -0.013431
 C         3.439147         0.485109         0.413738
 O         4.504836         0.750387         1.353871
 C         3.735124        -0.572598        -0.676097
 C         2.277287        -0.983238        -0.577838
 O         1.630364        -2.264154        -0.913352
 C         2.305648        -0.428694         0.957545
 H        -0.442449         0.683329         0.840126
 H        -0.557776         0.428808        -0.957436
 H        -0.569734        -0.928905         0.176161
 H         2.422249         2.105293        -0.911283
 H         2.016269         2.244342         0.769992
 H         4.550489        -0.100350         1.833020
 H         4.282605        -0.450253        -1.665405
 H         4.386989        -1.267268        -0.023083
 H         2.350804        -2.876173        -0.818796
 H         1.945575        -1.018975         1.874692
