19
Iteration:  2535charge 0 multiplicity 1
 C        -0.134937         0.239031        -0.242196
 C         1.360313         0.205111        -0.042388
 C         2.259566         1.438539         0.051859
 C         3.444715         0.393519         0.535504
 O         4.589570         0.790642         1.299493
 C         3.672211        -0.512923        -0.746209
 C         2.299565        -1.078291        -0.422021
 O         1.771459        -2.351445        -0.785273
 C         2.153681        -0.530896         0.995224
 H        -0.374766         1.215524         0.179059
 H        -0.481993         0.374223        -1.233445
 H        -0.772725        -0.522783         0.260355
 H         2.520454         2.117008        -0.836355
 H         1.731624         2.070478         0.864782
 H         4.944825         0.186085         2.052536
 H         3.806438         0.002579        -1.654744
 H         4.562893        -1.119676        -0.472712
 H         2.020971        -2.482028        -1.719703
 H         1.920064        -1.291141         1.896580
