19
Iteration:  4405
 C        -0.121879         0.300066        -0.328898
 C         1.360236         0.168704         0.027388
 C         2.330562         1.416592         0.059080
 C         3.465091         0.411118         0.498370
 O         4.514405         0.936305         1.276755
 C         3.716558        -0.619647        -0.560847
 C         2.267581        -1.086622        -0.367569
 O         1.716489        -2.440618        -0.877684
 C         2.207404        -0.608510         1.029410
 H        -0.521462         0.909112         0.505606
 H        -0.167454         1.052006        -1.157780
 H        -0.887071        -0.441451        -0.479968
 H         2.554338         2.023053        -0.761417
 H         2.150969         2.060713         0.963287
 H         5.295333         0.864694         0.800677
 H         4.042560        -0.170546        -1.581915
 H         4.475031        -1.352144        -0.230822
 H         1.040376        -2.364042        -1.603184
 H         1.929873        -0.873600         2.002825
