19
Iteration:  1322charge 0 multiplicity 1
 C        -0.006485         0.342399        -0.228911
 C         1.417938         0.097928         0.010792
 C         2.308786         1.293123         0.158157
 C         3.426898         0.444032         0.492477
 O         4.447481         1.003048         1.246436
 C         3.689953        -0.586588        -0.759680
 C         2.248803        -1.072301        -0.472415
 O         1.673153        -2.351561        -0.754286
 C         2.366672        -0.696415         0.937951
 H        -0.254567         1.381386         0.156320
 H        -0.078088         0.713121        -1.371382
 H        -0.786389        -0.354723        -0.006163
 H         2.199483         2.110290        -0.587169
 H         1.954645         1.708765         1.079927
 H         4.473591         0.597202         2.139183
 H         4.039587        -0.234474        -1.768472
 H         4.477817        -1.294749        -0.406478
 H         0.947496        -2.246981        -1.410806
 H         1.984025        -1.244242         1.759267
