19
Iteration:  1036charge 0 multiplicity 1
 C        -0.112357         0.367773        -0.127156
 C         1.400377         0.181243         0.047578
 C         2.316226         1.375070         0.196310
 C         3.306522         0.388901         0.536344
 O         4.502187         0.911446         1.107624
 C         3.681692        -0.531959        -0.619595
 C         2.237563        -1.057736        -0.450632
 O         1.916446        -2.359748        -0.965606
 C         2.200218        -0.699017         0.976829
 H        -0.548050         0.928066         0.653279
 H        -0.290785         0.687790        -1.161275
 H        -0.674936        -0.554002        -0.112321
 H         2.365352         2.107095        -0.742847
 H         2.019303         1.884393         1.075642
 H         4.973811         0.107790         1.487382
 H         4.018127        -0.005509        -1.537104
 H         4.510591        -1.170735        -0.280484
 H         0.968505        -2.430659        -1.046650
 H         1.917883        -1.242828         1.786064
