19
Iteration:  4937
 C        -0.094987         0.259709        -0.260281
 C         1.455073         0.154008         0.029085
 C         2.359680         1.399723         0.059412
 C         3.374494         0.335668         0.569441
 O         4.443735         0.877987         1.352926
 C         3.683495        -0.527902        -0.688159
 C         2.217044        -1.099186        -0.379856
 O         1.747320        -2.323529        -0.905755
 C         2.256084        -0.624815         1.032795
 H        -0.692032         0.998767         0.347206
 H        -0.213069         0.674626        -1.300716
 H        -0.585073        -0.681402        -0.226826
 H         2.687257         1.988859        -0.730163
 H         1.918110         2.057427         0.851493
 H         4.924456         1.466386         0.707147
 H         4.016436         0.007346        -1.665234
 H         4.464305        -1.347023        -0.494103
 H         1.583832        -2.190928        -1.871482
 H         2.138850        -1.192295         2.010906
