19
Iteration:  2665charge 0 multiplicity 1
 C        -0.180698         0.312152        -0.127629
 C         1.365692         0.170022        -0.144598
 C         2.374117         1.408139        -0.001725
 C         3.370393         0.392136         0.507400
 O         4.504071         0.741100         1.255935
 C         3.700024        -0.584911        -0.638222
 C         2.335595        -1.068536        -0.404425
 O         1.791502        -2.321922        -0.797010
 C         2.204491        -0.546031         1.010951
 H        -0.651528         0.885975         0.755958
 H        -0.411132         0.829948        -1.093893
 H        -0.657511        -0.774082        -0.261015
 H         2.587297         1.833938        -0.988884
 H         2.009696         2.289252         0.673050
 H         4.141245         1.287298         1.910427
 H         4.022551        -0.166227        -1.620814
 H         4.584536        -1.209889        -0.260678
 H         1.878925        -2.265265        -1.763547
 H         2.048317        -0.995436         2.005781
