19
Iteration:   651charge 0 multiplicity 1
 C        -0.120808         0.164024        -0.221073
 C         1.382794         0.085526         0.130415
 C         2.273372         1.381262         0.150000
 C         3.433999         0.518245         0.489698
 O         4.528930         0.944350         1.164023
 C         3.674094        -0.626260        -0.551139
 C         2.255213        -1.043835        -0.391282
 O         1.657378        -2.148388        -1.089415
 C         2.307059        -0.679334         1.057744
 H        -0.675767         0.774682         0.491922
 H        -0.149104         0.854774        -1.042631
 H        -0.652012        -0.745780        -0.361867
 H         2.490538         2.052675        -0.728231
 H         2.036665         1.931323         1.032504
 H         5.212404         0.279069         0.883888
 H         4.074102        -0.402539        -1.569208
 H         4.307327        -1.350739        -0.146627
 H         1.972236        -2.991354        -0.642281
 H         2.240121        -1.291109         2.026799
