19
Iteration:  4595charge 0 multiplicity 1
 C        -0.017819         0.090219        -0.249490
 C         1.375130         0.181214         0.004860
 C         2.384792         1.404446         0.009336
 C         3.447374         0.429123         0.545637
 O         4.617761         0.837434         1.295403
 C         3.683375        -0.583355        -0.582895
 C         2.221097        -1.034990        -0.483359
 O         1.569498        -2.211915        -0.812605
 C         2.226001        -0.578088         0.953801
 H        -0.770631         0.172426         0.554580
 H        -0.270272         0.761412        -1.081705
 H        -0.285272        -0.935470        -0.656321
 H         2.429761         1.832779        -0.960263
 H         1.882604         1.960664         0.873043
 H         4.436311         1.684052         1.831554
 H         4.313929        -0.246501        -1.527445
 H         4.253647        -1.433257        -0.017373
 H         1.267395        -2.103812        -1.730948
 H         2.222818        -1.173933         1.738339
