19
Iteration:  3839charge 0 multiplicity 1
 C        -0.015436         0.163461        -0.202305
 C         1.452052         0.140566         0.018329
 C         2.387979         1.318893        -0.175466
 C         3.471919         0.395720         0.561607
 O         4.565628         0.906037         1.229378
 C         3.647539        -0.729446        -0.484230
 C         2.232495        -1.118475        -0.339566
 O         1.701520        -2.188600        -1.065906
 C         2.123185        -0.442598         1.174425
 H        -0.466829         0.679409         0.693199
 H        -0.149992         0.761719        -1.138402
 H        -0.553082        -0.729655        -0.137671
 H         2.609012         1.533915        -1.324956
 H         1.978028         2.168425         0.361797
 H         4.389862         1.498939         1.984027
 H         3.744889        -0.467639        -1.488219
 H         4.314155        -1.362526         0.087220
 H         0.807564        -2.101623        -1.447561
 H         1.779473        -0.771400         2.273722
