19
Iteration:  1555
 C        -0.111025         0.213016        -0.254062
 C         1.433095         0.085300         0.036611
 C         2.353258         1.314251        -0.044232
 C         3.450468         0.406487         0.521720
 O         4.512858         0.902542         1.338716
 C         3.807854        -0.616596        -0.629303
 C         2.294913        -1.065204        -0.425230
 O         1.436331        -2.131978        -0.931549
 C         2.325414        -0.604024         1.017638
 H        -0.458612         0.972001         0.391700
 H        -0.293577         0.679230        -1.189044
 H        -0.530620        -0.740484        -0.121221
 H         2.536667         1.705328        -1.082662
 H         2.252700         2.113630         0.753143
 H         4.202027         1.380275         2.101197
 H         4.249846        -0.254826        -1.563738
 H         4.529430        -1.368477        -0.318760
 H         1.951433        -2.990078        -0.885917
 H         2.031297        -1.191221         1.838365
