19
Iteration:   457charge 0 multiplicity 1
 C        -0.079834         0.146172        -0.138903
 C         1.386029         0.143116         0.000456
 C         2.368303         1.335659        -0.013285
 C         3.415371         0.448864         0.534249
 O         4.631071         0.896086         1.350402
 C         3.591013        -0.551582        -0.702311
 C         2.204963        -1.114333        -0.344269
 O         1.629816        -2.183441        -1.043610
 C         2.231610        -0.539781         1.082020
 H        -0.657150         0.421544         0.744291
 H        -0.225562         0.616181        -1.144155
 H        -0.425994        -0.879930        -0.450279
 H         2.606784         1.969424        -0.857307
 H         1.940298         2.148240         0.680686
 H         5.460901         0.559880         0.930603
 H         3.563099        -0.141449        -1.662323
 H         4.355850        -1.327716        -0.437363
 H         2.099766        -3.031106        -0.792454
 H         2.006531        -0.717638         2.183200
