19
Iteration:  1809charge 0 multiplicity 1
 C        -0.075467         0.294607        -0.162286
 C         1.412781         0.214278        -0.044276
 C         2.422334         1.311476        -0.106555
 C         3.399032         0.337682         0.524452
 O         4.484110         0.858697         1.315003
 C         3.674249        -0.638300        -0.654625
 C         2.249688        -1.050003        -0.422529
 O         1.750352        -2.245779        -0.829194
 C         2.220427        -0.587242         1.017143
 H        -0.554821         0.609266         0.785641
 H        -0.279475         1.104568        -0.866293
 H        -0.485690        -0.765786        -0.421190
 H         2.708830         1.760112        -1.047255
 H         2.150659         2.159301         0.519172
 H         4.223106         1.005424         2.294331
 H         4.013068        -0.380579        -1.645911
 H         4.245540        -1.489267        -0.480184
 H         1.066224        -1.939380        -1.457576
 H         1.845012        -1.034622         1.849787
