19
Iteration:    82
 C        -0.048812         0.186087        -0.005841
 C         1.399658         0.201270         0.135697
 C         2.281138         1.387942         0.001219
 C         3.374377         0.384612         0.534814
 O         4.527277         0.832849         1.251654
 C         3.636363        -0.565507        -0.723165
 C         2.230610        -1.052903        -0.400179
 O         1.824149        -2.204497        -1.088734
 C         2.229260        -0.642459         1.052219
 H        -0.601379         0.807692         0.704875
 H        -0.274605         0.726822        -0.933331
 H        -0.438043        -0.835488        -0.024010
 H         2.374945         1.811434        -1.068841
 H         2.068645         2.286077         0.581482
 H         5.192344         1.052278         0.567705
 H         3.694198        -0.189542        -1.775682
 H         4.242495        -1.387113        -0.309827
 H         1.258081        -2.697192        -0.492712
 H         1.947766        -0.988043         2.122152
