19
Iteration:   565charge 0 multiplicity 1
 C        -0.175790         0.078800        -0.011221
 C         1.374032         0.227919        -0.121927
 C         2.290921         1.460454        -0.070763
 C         3.451108         0.456328         0.475943
 O         4.515307         0.674839         1.315962
 C         3.689572        -0.528480        -0.702672
 C         2.249064        -1.006451        -0.430901
 O         1.728217        -2.161025        -0.883772
 C         2.286438        -0.459701         0.953859
 H        -0.575022         0.771390         0.726280
 H        -0.763790         0.298837        -0.917437
 H        -0.363786        -0.979460         0.317017
 H         2.546939         2.020209        -0.975996
 H         1.925036         2.047205         0.821610
 H         4.575305        -0.047076         1.898269
 H         4.242180        -0.303597        -1.676953
 H         4.273128        -1.402273        -0.171779
 H         2.356856        -2.912463        -0.915934
 H         2.212626        -1.018030         1.979715
