19
Iteration:  4080charge 0 multiplicity 1
 C        -0.060346         0.189041        -0.227328
 C         1.438606         0.225751        -0.133876
 C         2.395239         1.475488        -0.147058
 C         3.347965         0.511162         0.572237
 O         4.478011         0.646923         1.372521
 C         3.699919        -0.506881        -0.597008
 C         2.323318        -1.090553        -0.350197
 O         1.767346        -2.323044        -0.849128
 C         2.125115        -0.495025         1.019271
 H        -0.594073         1.064984         0.210834
 H        -0.548213         0.284407        -1.218391
 H        -0.531331        -0.629875         0.214682
 H         2.502860         1.939196        -1.109870
 H         2.155217         2.228210         0.549960
 H         5.313685         0.370817         0.856895
 H         3.823827        -0.217043        -1.689213
 H         4.445745        -1.335184        -0.353195
 H         0.935682        -2.540171        -0.364836
 H         1.652079        -0.630303         2.019217
