19
Iteration:  2570
 C        -0.065722         0.120369        -0.237099
 C         1.431345         0.236883         0.011168
 C         2.380942         1.495666        -0.020343
 C         3.409400         0.372458         0.507713
 O         4.421242         0.807909         1.367715
 C         3.660632        -0.532058        -0.669956
 C         2.222075        -1.041460        -0.395968
 O         1.731835        -2.277823        -0.863179
 C         2.253994        -0.548969         1.037078
 H        -0.628387         0.926987         0.217906
 H        -0.223541        -0.015604        -1.331816
 H        -0.433018        -0.770270         0.221741
 H         2.699733         1.919543        -1.080141
 H         2.150971         2.250529         0.740065
 H         5.269563         0.264089         1.219944
 H         3.894898        -0.160785        -1.692128
 H         4.410305        -1.244293        -0.377159
 H         1.100308        -2.319904        -1.580150
 H         2.107158        -1.132619         1.926623
