19
Iteration:  2972
 C        -0.036977         0.249346        -0.091789
 C         1.428633         0.208372        -0.056510
 C         2.359569         1.479375        -0.170886
 C         3.397066         0.366873         0.487643
 O         4.457780         0.806540         1.357807
 C         3.730010        -0.559707        -0.648867
 C         2.352179        -1.091634        -0.435655
 O         1.653978        -2.347524        -0.794059
 C         2.242052        -0.515056         0.953845
 H        -0.479521         0.988679         0.587963
 H        -0.440271         0.467298        -1.150357
 H        -0.469433        -0.763132         0.203242
 H         2.504447         2.068811        -1.112361
 H         2.068638         2.211416         0.633894
 H         4.064576         0.574938         2.276211
 H         3.990108        -0.044030        -1.662858
 H         4.443903        -1.392705        -0.389772
 H         1.198365        -2.455166        -1.660394
 H         1.979759        -1.223573         1.920806
