19
Iteration:  3485charge 0 multiplicity 1
 C        -0.223167         0.379949        -0.114627
 C         1.363974         0.167366        -0.086997
 C         2.378663         1.390403        -0.066198
 C         3.429484         0.415549         0.552947
 O         4.548163         0.757363         1.238092
 C         3.652842        -0.603993        -0.549465
 C         2.277284        -1.088193        -0.429819
 O         1.854913        -2.397246        -0.887866
 C         2.214853        -0.544391         1.003848
 H        -0.428122         1.145414         0.542671
 H        -0.315547         0.669628        -1.151119
 H        -0.983191        -0.415129        -0.115049
 H         2.746348         1.887980        -1.036612
 H         2.016178         2.158262         0.608913
 H         4.476400         1.479340         1.955777
 H         3.963323        -0.210392        -1.537130
 H         4.425074        -1.254543        -0.102053
 H         0.981997        -2.472157        -1.313960
 H         1.865323        -0.737204         1.944164
