19
Iteration:    71
 C        -0.042687         0.169349        -0.026613
 C         1.428136         0.097446         0.125842
 C         2.293911         1.479737        -0.020485
 C         3.358263         0.448319         0.529456
 O         4.478781         0.762692         1.236602
 C         3.597297        -0.566144        -0.660089
 C         2.253110        -1.072418        -0.428442
 O         1.770396        -2.248915        -1.058723
 C         2.344683        -0.584747         1.068449
 H        -0.423809         0.649113         0.872935
 H        -0.158073         0.744575        -0.946453
 H        -0.662877        -0.703680        -0.238906
 H         2.509375         1.774133        -1.117526
 H         2.002420         2.187277         0.733529
 H         4.965389         1.350674         0.670523
 H         3.958735         0.094871        -1.488426
 H         4.433810        -1.247537        -0.717167
 H         0.885745        -2.399567        -0.707296
 H         2.026257        -0.908172         2.152316
