19
Iteration:   358
 C        -0.015641         0.239576        -0.117782
 C         1.434582         0.087285         0.173840
 C         2.262723         1.329607        -0.009536
 C         3.397221         0.393848         0.517851
 O         4.471254         0.906298         1.293815
 C         3.726718        -0.581150        -0.707861
 C         2.210701        -1.092198        -0.416851
 O         1.602707        -2.137652        -1.096223
 C         2.333472        -0.664278         1.142070
 H        -0.398992         1.227410         0.174036
 H        -0.119242         0.529739        -1.216758
 H        -0.590618        -0.666328         0.094157
 H         2.273222         1.798986        -0.989166
 H         1.908254         2.033255         0.812624
 H         5.179689         1.219311         0.645843
 H         3.993792        -0.087332        -1.631397
 H         4.478892        -1.324839        -0.380879
 H         1.791823        -3.044626        -0.759009
 H         2.406468        -1.105021         2.227325
