19
Iteration:  1926
 C        -0.104011         0.283792        -0.107924
 C         1.403704         0.233886        -0.140236
 C         2.374063         1.419871        -0.100441
 C         3.372227         0.373299         0.511886
 O         4.411388         0.641640         1.378509
 C         3.753921        -0.590230        -0.670710
 C         2.351929        -1.044500        -0.444055
 O         1.780164        -2.321431        -0.844092
 C         2.198535        -0.520829         0.934809
 H        -0.319899         1.395598         0.084043
 H        -0.587203         0.035235        -1.018355
 H        -0.396879        -0.267769         0.727249
 H         2.706925         2.167784        -0.935900
 H         2.132561         2.149227         0.762405
 H         4.176664         1.454014         1.870065
 H         3.949532        -0.216098        -1.734549
 H         4.640479        -1.188904        -0.333067
 H         0.830256        -2.366236        -0.536261
 H         1.917250        -0.738116         1.875207
