19
Iteration:  3388
 C        -0.010777         0.094623        -0.278605
 C         1.412880         0.191929        -0.006216
 C         2.399486         1.404936        -0.031028
 C         3.408500         0.395428         0.560445
 O         4.570628         0.789346         1.157772
 C         3.682689        -0.659349        -0.514360
 C         2.250886        -1.022033        -0.253926
 O         1.631092        -2.216220        -1.002080
 C         2.189363        -0.455448         1.111316
 H        -0.554313         0.744663         0.399937
 H        -0.370392         0.055298        -1.348387
 H        -0.201866        -0.908670         0.013919
 H         2.678217         1.746208        -0.996864
 H         2.117489         2.285161         0.686125
 H         4.374489         1.358172         2.014109
 H         3.750494        -0.340171        -1.576822
 H         4.531593        -1.285556        -0.166572
 H         0.879220        -1.879420        -1.537423
 H         1.889996        -0.920382         2.083582
