19
Iteration:  3331charge 0 multiplicity 1
 C        -0.048181         0.320297        -0.190794
 C         1.380680         0.145092        -0.049006
 C         2.352419         1.428047         0.023817
 C         3.454499         0.363903         0.523435
 O         4.457828         0.808626         1.250509
 C         3.741949        -0.573908        -0.624994
 C         2.273368        -1.053968        -0.493521
 O         1.653973        -2.305976        -0.732423
 C         2.250297        -0.654692         0.937395
 H        -0.284303         1.332513        -0.068014
 H        -0.226370         0.179865        -1.287545
 H        -0.608741        -0.303175         0.549680
 H         2.436187         2.109021        -0.856660
 H         1.998799         2.215624         0.849926
 H         4.168587         1.454921         1.830739
 H         3.933703        -0.132048        -1.662711
 H         4.459737        -1.369140        -0.352366
 H         1.723048        -2.607496        -1.647691
 H         2.063593        -1.200231         1.960650
