19
Iteration:  2960
 C        -0.095883         0.220436        -0.105557
 C         1.403501         0.172405        -0.076193
 C         2.320610         1.355771        -0.115651
 C         3.453420         0.415662         0.504235
 O         4.471921         0.850802         1.316640
 C         3.803275        -0.642037        -0.611226
 C         2.208109        -1.041867        -0.469619
 O         1.700131        -2.252089        -0.817522
 C         2.258968        -0.540938         0.956175
 H        -0.387692         1.036463         0.544049
 H        -0.487866         0.417127        -1.181318
 H        -0.568174        -0.747771         0.299220
 H         2.497745         1.816422        -1.145620
 H         2.197088         2.094123         0.670111
 H         4.292880         0.696926         2.264766
 H         4.342593        -0.214606        -1.548906
 H         4.383699        -1.528671        -0.202557
 H         1.171518        -1.936968        -1.554006
 H         1.897993        -1.056937         1.997658
