19
Iteration:   760charge 0 multiplicity 1
 C        -0.070354         0.230896         0.055649
 C         1.393790         0.126582         0.004354
 C         2.374477         1.307796         0.085108
 C         3.469387         0.392418         0.545236
 O         4.553548         1.117917         1.274957
 C         3.666109        -0.571015        -0.608746
 C         2.208452        -1.097149        -0.491334
 O         1.638515        -2.225951        -1.181991
 C         2.166329        -0.720546         0.962387
 H        -0.441047         0.795254         0.919351
 H        -0.505194         0.410039        -0.949206
 H        -0.373232        -0.831827         0.239864
 H         2.576687         1.982651        -0.800552
 H         2.025705         2.002341         0.818349
 H         5.070281         0.481116         1.736135
 H         4.063510        -0.087145        -1.580056
 H         4.378094        -1.316358        -0.245371
 H         2.094961        -3.036643        -0.890903
 H         1.846022        -1.255537         1.736379
