19
Iteration:  2812
 C        -0.117039         0.279885        -0.083774
 C         1.392125         0.202150        -0.064954
 C         2.334472         1.375600        -0.148721
 C         3.405603         0.447088         0.509655
 O         4.436938         0.783962         1.421443
 C         3.682260        -0.587103        -0.651328
 C         2.279685        -1.113237        -0.413682
 O         1.773554        -2.333678        -0.884438
 C         2.222169        -0.517648         1.016602
 H        -0.472210         0.927324         0.849373
 H        -0.468813         0.795283        -1.054458
 H        -0.506535        -0.738934        -0.030888
 H         2.469101         1.820802        -1.166161
 H         2.069140         2.225483         0.557542
 H         5.295810         0.925747         0.895882
 H         4.182809        -0.056531        -1.532315
 H         4.364668        -1.318007        -0.198253
 H         1.521036        -2.344043        -1.836450
 H         2.094481        -1.060220         2.084962
