19
Iteration:  1162charge 0 multiplicity 1
 C        -0.038241         0.287100        -0.264375
 C         1.410986         0.105904         0.041307
 C         2.217014         1.374000         0.068705
 C         3.349029         0.425745         0.491429
 O         4.492441         0.759895         1.283405
 C         3.618872        -0.503318        -0.745373
 C         2.267956        -1.070997        -0.358379
 O         1.838970        -2.281220        -0.811416
 C         2.291599        -0.640547         1.071368
 H        -0.292802         1.181009         0.305301
 H        -0.199989         0.685572        -1.218815
 H        -0.791914        -0.510590        -0.092442
 H         2.513601         1.925506        -0.899102
 H         2.007883         2.105638         0.941620
 H         5.098833         1.354259         0.735768
 H         3.581514        -0.154195        -1.783169
 H         4.382969        -1.267945        -0.533289
 H         1.219612        -2.228411        -1.553767
 H         2.088197        -1.067572         2.020370
