19
Iteration:  1824charge 0 multiplicity 1
 C        -0.101297         0.269698        -0.238027
 C         1.423906         0.190532        -0.028346
 C         2.376675         1.404439        -0.014641
 C         3.435769         0.393501         0.551605
 O         4.562125         0.871683         1.181851
 C         3.691899        -0.705702        -0.519439
 C         2.279180        -1.112965        -0.355573
 O         1.695239        -2.262931        -0.971046
 C         2.151604        -0.537135         1.071636
 H        -0.536488         0.477917         0.700388
 H        -0.332073         0.975505        -1.075591
 H        -0.535212        -0.670345        -0.525417
 H         2.571967         1.974047        -1.029305
 H         2.122730         2.276761         0.730135
 H         4.441284         0.717670         2.103914
 H         4.030762        -0.231716        -1.472415
 H         4.512808        -1.330218         0.012370
 H         0.832177        -2.189430        -1.369002
 H         2.000879        -1.141800         2.056520
