19
Iteration:  3366charge 0 multiplicity 1
 C        -0.155798         0.117840        -0.262249
 C         1.431244         0.194505         0.008270
 C         2.391968         1.424498        -0.053884
 C         3.467790         0.378089         0.570646
 O         4.657010         0.800135         1.244294
 C         3.649714        -0.639507        -0.579616
 C         2.219629        -1.023112        -0.332198
 O         1.673013        -2.216590        -0.900504
 C         2.192353        -0.563362         1.072901
 H        -0.685196         1.040038        -0.025896
 H        -0.240189        -0.109293        -1.385865
 H        -0.734346        -0.718791         0.070472
 H         2.372671         1.770579        -1.010000
 H         1.959678         2.165823         0.697396
 H         4.444300         1.514773         1.774456
 H         3.864121        -0.111271        -1.541702
 H         4.289541        -1.531533        -0.440195
 H         1.440378        -1.908011        -1.799404
 H         1.969479        -0.693899         2.197915
