19
Iteration:  4505
 C        -0.156302         0.172085        -0.103750
 C         1.390864         0.169646        -0.152448
 C         2.414834         1.403282        -0.047680
 C         3.458124         0.306798         0.566049
 O         4.455859         0.740647         1.321078
 C         3.832876        -0.578129        -0.720127
 C         2.265135        -0.997978        -0.473885
 O         1.763775        -2.227575        -0.756223
 C         2.115183        -0.465300         0.973803
 H        -0.461742         1.039105         0.586017
 H        -0.839241         0.133321        -0.998687
 H        -0.487056        -0.698641         0.379549
 H         2.663128         1.820761        -0.978406
 H         2.123272         2.148513         0.769319
 H         4.119253         1.496698         1.827857
 H         4.059722        -0.049574        -1.750768
 H         4.480815        -1.373997        -0.384657
 H         1.496173        -2.170895        -1.707062
 H         1.802970        -1.255479         1.835822
