19
Iteration:  4055charge 0 multiplicity 1
 C        -0.046111         0.281654        -0.246178
 C         1.390019         0.256860        -0.134047
 C         2.414960         1.403142        -0.071789
 C         3.390126         0.410364         0.523572
 O         4.421345         0.728197         1.432785
 C         3.660178        -0.634337        -0.701474
 C         2.214577        -1.049239        -0.415352
 O         1.830533        -2.311789        -0.754057
 C         2.183339        -0.497207         0.987405
 H        -0.649484         1.009575         0.298120
 H        -0.423916         0.418494        -1.281686
 H        -0.483457        -0.707106         0.050687
 H         2.643739         1.955241        -0.975222
 H         2.200587         2.102962         0.789899
 H         5.149639         1.253560         0.924517
 H         3.953282        -0.318807        -1.730431
 H         4.226112        -1.486587        -0.372807
 H         0.914688        -2.617860        -0.685585
 H         2.268243        -0.901803         1.943445
