19
Iteration:  2545
 C        -0.176454         0.234343        -0.245740
 C         1.378530         0.127357        -0.105783
 C         2.333750         1.397311         0.049798
 C         3.407497         0.363412         0.565049
 O         4.558698         0.795262         1.304567
 C         3.650290        -0.510991        -0.742873
 C         2.274518        -1.016647        -0.421092
 O         1.839898        -2.248786        -0.766008
 C         2.175814        -0.512006         1.023924
 H        -0.605333         1.123439         0.205450
 H        -0.345652         0.077283        -1.222883
 H        -0.701447        -0.639405         0.258638
 H         2.608193         1.935466        -0.862313
 H         2.041192         2.022513         0.965800
 H         4.863062        -0.085309         1.766503
 H         3.626673        -0.014032        -1.659875
 H         4.442627        -1.306361        -0.786898
 H         1.687612        -2.485373        -1.709508
 H         1.797651        -0.931090         2.072454
