19
Iteration:  2555charge 0 multiplicity 1
 C        -0.129039         0.167484        -0.259319
 C         1.352797         0.220059        -0.072760
 C         2.425415         1.325965         0.019683
 C         3.404800         0.394751         0.548971
 O         4.471034         0.781983         1.303421
 C         3.604876        -0.479372        -0.720572
 C         2.230625        -1.006884        -0.390893
 O         1.843375        -2.258323        -0.764026
 C         2.259465        -0.561862         1.011738
 H        -0.642321         1.087577         0.037118
 H        -0.463392         0.120710        -1.236964
 H        -0.478424        -0.756564         0.317104
 H         2.636045         1.966307        -0.768964
 H         2.131222         2.099852         0.804734
 H         4.937955        -0.100473         1.505735
 H         3.812483         0.105111        -1.582471
 H         4.287266        -1.388011        -0.622825
 H         1.486447        -1.997295        -1.667877
 H         1.792485        -0.808145         2.066856
