19
Iteration:  4898
 C        -0.078902        -0.059707        -0.287246
 C         1.376840         0.179737        -0.030941
 C         2.351341         1.527140        -0.035222
 C         3.423319         0.423981         0.577054
 O         4.549769         0.648374         1.404289
 C         3.730940        -0.479714        -0.735194
 C         2.299982        -0.997483        -0.421687
 O         1.535546        -2.176685        -0.842178
 C         2.333438        -0.513286         1.058394
 H        -0.855893         0.551110         0.180285
 H        -0.187134        -0.074500        -1.380932
 H        -0.274698        -1.108785        -0.020490
 H         2.633410         2.067979        -1.045446
 H         1.979263         2.209929         0.715561
 H         4.372764         1.642390         1.689886
 H         4.198233        -0.139979        -1.701360
 H         4.237375        -1.222340        -0.177137
 H         1.372445        -2.087104        -1.790781
 H         2.228421        -0.929294         2.161588
