19
Iteration:  4426charge 0 multiplicity 1
 C        -0.041036         0.256897        -0.272875
 C         1.414140         0.211002        -0.011160
 C         2.381012         1.320813         0.043786
 C         3.387885         0.395496         0.611526
 O         4.499968         1.019431         1.156180
 C         3.668080        -0.678699        -0.594699
 C         2.234006        -1.072253        -0.380453
 O         1.756201        -2.277856        -0.893242
 C         2.156609        -0.624238         1.096561
 H        -0.684667         0.868282         0.391813
 H        -0.281253         0.653553        -1.293715
 H        -0.566664        -0.744461        -0.159274
 H         2.624270         1.828799        -0.881770
 H         2.116324         2.059696         0.853749
 H         5.039736         0.260112         1.574882
 H         4.174881        -0.298903        -1.532302
 H         4.328685        -1.536114        -0.298773
 H         1.103791        -1.962985        -1.549951
 H         1.952405        -1.265564         1.895901
