19
Iteration:  1129charge 0 multiplicity 1
 C        -0.220642        -0.042794        -0.099916
 C         1.344024         0.264528        -0.122118
 C         2.427244         1.488721         0.010031
 C         3.430307         0.439028         0.523144
 O         4.600925         0.761334         1.384461
 C         3.713179        -0.568247        -0.644176
 C         2.213593        -0.996525        -0.452292
 O         1.711666        -2.270343        -0.853148
 C         2.169287        -0.471828         0.937219
 H        -0.618603         0.580977         0.710828
 H        -0.659926         0.098811        -1.039800
 H        -0.490411        -1.085201         0.245105
 H         2.680511         2.021325        -0.974741
 H         2.225344         2.254488         0.862680
 H         5.316365         0.994279         0.814230
 H         4.115605        -0.235856        -1.614431
 H         4.470342        -1.331399        -0.341082
 H         1.530993        -2.203667        -1.841558
 H         1.815720        -0.874608         1.980239
