19
Iteration:  2105
 C        -0.080015         0.371706        -0.158230
 C         1.364506         0.194520        -0.057545
 C         2.418484         1.326203        -0.124186
 C         3.399262         0.379068         0.571702
 O         4.515408         0.857721         1.287886
 C         3.656491        -0.666903        -0.570270
 C         2.243940        -1.081657        -0.374196
 O         1.750320        -2.253392        -0.993647
 C         2.165181        -0.571278         1.041845
 H        -0.428320         1.142461         0.445542
 H        -0.203374         0.467665        -1.188026
 H        -0.599911        -0.506087         0.158285
 H         2.840033         1.773939        -1.090955
 H         1.966118         2.186867         0.335501
 H         4.104809         1.066528         2.099183
 H         3.998656        -0.364712        -1.591919
 H         4.309039        -1.501621        -0.222748
 H         2.201759        -2.994074        -0.501686
 H         1.858375        -0.929711         2.009588
