19
Iteration:  4134charge 0 multiplicity 1
 C         0.008368         0.258753        -0.294521
 C         1.457221         0.279051         0.082897
 C         2.439284         1.369761        -0.015260
 C         3.431364         0.346458         0.603923
 O         4.381577         1.029630         1.189182
 C         3.768148        -0.712955        -0.510681
 C         2.297875        -1.167725        -0.369043
 O         1.541525        -2.202370        -0.985922
 C         2.171781        -0.607862         1.001570
 H        -0.623610         1.086947         0.261961
 H        -0.197983         0.410998        -1.417159
 H        -0.484162        -0.649077        -0.045393
 H         2.585638         1.709629        -1.052303
 H         2.223712         2.187873         0.708783
 H         5.010021         0.677829         1.927870
 H         3.988361        -0.412575        -1.570840
 H         4.483670        -1.510226        -0.193768
 H         1.689945        -3.081309        -0.574868
 H         1.969980        -1.398978         1.829698
