19
Iteration:  4635
 C        -0.083739         0.145686        -0.091695
 C         1.431702         0.211344        -0.110871
 C         2.384880         1.404886        -0.106036
 C         3.416111         0.413349         0.496819
 O         4.495324         0.681651         1.397940
 C         3.622431        -0.536175        -0.703675
 C         2.285497        -1.083016        -0.365175
 O         1.755811        -2.257709        -0.878748
 C         2.173743        -0.479096         0.990857
 H        -0.460014         0.848395         0.708297
 H        -0.488660         0.379342        -1.102236
 H        -0.227801        -0.831826         0.275683
 H         2.790766         2.016783        -0.952634
 H         2.015039         2.157259         0.643735
 H         4.093092         1.455020         1.819272
 H         3.805772        -0.149241        -1.651425
 H         4.423285        -1.130785        -0.415444
 H         1.626920        -2.222121        -1.848145
 H         1.952375        -0.811525         2.013298
