19
Iteration:  1837charge 0 multiplicity 1
 C        -0.101155         0.217011        -0.297755
 C         1.398499         0.153056        -0.005787
 C         2.351161         1.381126         0.018025
 C         3.384757         0.408444         0.570657
 O         4.646598         0.878063         1.121217
 C         3.729927        -0.660738        -0.454024
 C         2.209655        -1.122046        -0.381021
 O         1.693355        -2.256562        -1.042727
 C         2.217167        -0.496951         1.152316
 H        -0.782337         0.705996         0.480434
 H        -0.337484         0.921308        -1.120856
 H        -0.517827        -0.704050        -0.595526
 H         2.595188         2.050160        -0.927794
 H         1.917254         1.826117         0.979251
 H         4.750013         0.694521         2.114315
 H         4.181724        -0.493862        -1.482249
 H         4.366174        -1.531111         0.067359
 H         0.767359        -1.885561        -1.094414
 H         1.664839        -0.659777         2.200368
