19
Iteration:  3997
 C        -0.002148         0.260936        -0.191919
 C         1.451147         0.129548        -0.050986
 C         2.435541         1.349784        -0.096778
 C         3.395159         0.418889         0.552864
 O         4.514128         0.966217         1.223529
 C         3.714222        -0.738772        -0.499735
 C         2.272906        -1.150624        -0.361720
 O         1.614325        -2.177499        -0.899311
 C         2.149836        -0.647401         1.107536
 H        -0.437001         0.841295         0.620957
 H        -0.071957         0.774120        -1.159302
 H        -0.494313        -0.767763        -0.402982
 H         2.610328         1.735542        -1.147300
 H         1.996493         2.225229         0.516234
 H         4.250906         1.815175         1.479402
 H         4.044956        -0.329304        -1.439751
 H         4.359278        -1.557480        -0.169508
 H         1.387428        -2.193519        -1.842980
 H         1.615190        -1.204951         1.971358
