19
Iteration:  1086
 C        -0.039878         0.157179         0.006021
 C         1.501179         0.158064         0.103151
 C         2.401959         1.373165        -0.127690
 C         3.400252         0.359613         0.455690
 O         4.279576         0.924319         1.380196
 C         3.758141        -0.554878        -0.654138
 C         2.329258        -1.138274        -0.390273
 O         1.565195        -2.175018        -0.993671
 C         2.323225        -0.606051         0.977342
 H        -0.563684         0.706865         0.846722
 H        -0.384865         0.528902        -0.970829
 H        -0.475537        -0.908864         0.145472
 H         2.562520         1.607550        -1.110003
 H         2.219799         2.336891         0.401048
 H         5.184963         0.821878         1.206905
 H         4.072528        -0.194400        -1.650406
 H         4.482284        -1.372300        -0.471729
 H         1.525962        -2.091500        -1.980236
 H         2.072234        -0.977884         2.082578
