19
Iteration:  3916charge 0 multiplicity 1
 C        -0.145308         0.174612        -0.335504
 C         1.348595         0.152979        -0.087252
 C         2.450559         1.407878        -0.030173
 C         3.398873         0.393732         0.473325
 O         4.543763         0.714909         1.395159
 C         3.675260        -0.496617        -0.775374
 C         2.272268        -1.114688        -0.318449
 O         1.627873        -2.301737        -0.693291
 C         2.274850        -0.465531         0.989760
 H        -0.322878         1.173408         0.202462
 H        -0.325296         0.604326        -1.339206
 H        -0.749564        -0.532906         0.107313
 H         2.829452         2.098218        -0.982780
 H         2.038328         2.113761         0.674670
 H         4.280800         1.360621         2.006481
 H         3.771070         0.088500        -1.690606
 H         4.554228        -1.176062        -0.616886
 H         2.039800        -2.615905        -1.495643
 H         2.146831        -0.938425         2.035337
