19
Iteration:  1399
 C        -0.100804         0.032902        -0.095855
 C         1.387454         0.187512        -0.103924
 C         2.406139         1.422785        -0.046559
 C         3.402479         0.400180         0.458403
 O         4.441753         0.779646         1.310884
 C         3.797978        -0.683563        -0.570413
 C         2.314738        -1.047974        -0.370720
 O         1.588187        -2.092076        -0.878714
 C         2.194640        -0.496769         0.982392
 H        -0.469021         0.438146         0.864728
 H        -0.657545         0.511537        -0.962909
 H        -0.307993        -1.022501        -0.117616
 H         2.659918         1.992595        -1.036033
 H         2.215499         2.037484         0.833723
 H         5.126486         1.429326         0.949430
 H         4.117008        -0.378460        -1.561602
 H         4.419311        -1.405812        -0.032508
 H         1.991839        -2.279838        -1.725049
 H         1.896806        -0.674969         1.954366
