19
Iteration:  2282charge 0 multiplicity 1
 C        -0.020556         0.213167        -0.174102
 C         1.400497         0.153166         0.018945
 C         2.397247         1.359641        -0.186327
 C         3.429456         0.412392         0.504977
 O         4.452828         0.944427         1.278779
 C         3.659653        -0.672940        -0.518854
 C         2.264293        -1.099695        -0.363192
 O         1.733760        -2.195019        -1.033713
 C         2.263945        -0.550750         1.095844
 H        -0.446020         0.731480         0.744604
 H        -0.439035         0.764590        -1.047095
 H        -0.419333        -0.882073        -0.219786
 H         2.616581         1.846182        -1.163188
 H         2.169064         2.058481         0.550264
 H         4.332120         0.663654         2.157886
 H         3.929019        -0.569349        -1.573861
 H         4.213781        -1.549114         0.001863
 H         0.761545        -2.316156        -0.888491
 H         1.884448        -1.080667         2.097115
