19
Iteration:  2874
 C        -0.135147         0.206029        -0.279523
 C         1.333131         0.179328         0.014570
 C         2.355426         1.407094         0.030012
 C         3.419059         0.365910         0.495641
 O         4.532938         0.783343         1.362621
 C         3.709137        -0.590085        -0.732646
 C         2.311913        -1.025651        -0.454091
 O         1.675089        -2.259689        -0.722026
 C         2.267780        -0.572274         0.959221
 H        -0.855688         0.697574         0.309892
 H        -0.355274         0.572120        -1.260307
 H        -0.405893        -0.870393        -0.327295
 H         2.448080         2.016605        -0.848722
 H         2.193693         2.111628         0.914532
 H         4.958236         1.710113         1.298555
 H         4.109201        -0.106872        -1.613403
 H         4.436906        -1.316299        -0.380697
 H         1.328415        -2.367040        -1.629637
 H         1.991844        -1.048340         2.018429
