19
Iteration:  3966charge 0 multiplicity 1
 C        -0.175411         0.162780        -0.235361
 C         1.357377         0.228112        -0.099207
 C         2.467716         1.426004        -0.055047
 C         3.414406         0.404270         0.496309
 O         4.592218         0.828811         1.211439
 C         3.689124        -0.728876        -0.482564
 C         2.238279        -1.030754        -0.393220
 O         1.654122        -2.271379        -0.872312
 C         2.201123        -0.397132         1.101869
 H        -0.810669         0.681049         0.467156
 H        -0.413269         0.584456        -1.218217
 H        -0.250078        -1.010351        -0.204150
 H         2.580851         1.967007        -0.950591
 H         2.135941         2.162029         0.753824
 H         4.285215         1.060718         2.178188
 H         4.171202        -0.448867        -1.491265
 H         4.282391        -1.559947        -0.141568
 H         2.123975        -2.548489        -1.685345
 H         1.954269        -1.145404         1.988625
