19
Iteration:  4116
 C        -0.117784         0.216374        -0.291473
 C         1.420731         0.211796         0.026458
 C         2.427024         1.367565        -0.089191
 C         3.462981         0.382289         0.539194
 O         4.454360         0.955087         1.320800
 C         3.671453        -0.695774        -0.589491
 C         2.193005        -1.054521        -0.374835
 O         1.699441        -2.193494        -0.987553
 C         2.192689        -0.564431         1.077068
 H        -0.487670         1.070093         0.227228
 H        -0.070853         0.113546        -1.346369
 H        -0.509397        -0.734512         0.102480
 H         2.672848         1.755801        -1.092841
 H         2.402112         2.111968         0.685559
 H         5.070774         0.125225         1.413392
 H         4.143599        -0.370097        -1.548838
 H         4.226609        -1.597434        -0.133963
 H         1.482027        -2.763872        -0.225991
 H         1.913687        -0.812852         2.126983
