19
Iteration:  1906
 C        -0.097985         0.269242        -0.217468
 C         1.411321         0.133157        -0.117648
 C         2.323325         1.382943        -0.091944
 C         3.487490         0.437285         0.499393
 O         4.500852         0.737662         1.421938
 C         3.687853        -0.596761        -0.708891
 C         2.286564        -1.065749        -0.402699
 O         1.685798        -2.240217        -0.861889
 C         2.304337        -0.524177         1.033470
 H        -0.324348         1.359372        -0.046765
 H        -0.418429         0.101532        -1.228232
 H        -0.509536        -0.512261         0.477626
 H         2.601456         2.028157        -1.061420
 H         1.940252         1.966878         0.723414
 H         4.031915         1.161445         2.244425
 H         3.989499        -0.179970        -1.710930
 H         4.265544        -1.481623        -0.513366
 H         0.787937        -2.316547        -0.509536
 H         2.137164        -1.093418         1.849040
