19
Iteration:  3683
 C        -0.005552         0.071441        -0.221274
 C         1.429686         0.200793        -0.080919
 C         2.428463         1.361137        -0.061214
 C         3.452632         0.397228         0.510983
 O         4.509878         0.877775         1.324103
 C         3.732059        -0.696451        -0.637530
 C         2.186378        -1.040051        -0.328624
 O         1.568917        -2.165669        -0.970744
 C         2.267616        -0.498341         1.055063
 H        -0.515812         0.656197         0.576235
 H        -0.322571         0.669623        -1.150387
 H        -0.417481        -1.009812        -0.107136
 H         2.981024         1.854179        -0.991754
 H         1.949336         2.091376         0.552931
 H         4.208576         1.706944         1.809024
 H         4.095800        -0.401646        -1.612107
 H         4.337505        -1.464110        -0.124619
 H         1.021841        -2.673642        -0.337902
 H         1.822150        -0.940887         2.003915
