19
Iteration:  1177charge 0 multiplicity 1
 C        -0.131377         0.455528        -0.313870
 C         1.344009         0.011609         0.119580
 C         2.250634         1.281984         0.062433
 C         3.465039         0.411701         0.471397
 O         4.451720         0.862636         1.351277
 C         3.636256        -0.515794        -0.816995
 C         2.308340        -1.126414        -0.344110
 O         1.750062        -2.342048        -0.818634
 C         2.404908        -0.629035         1.080418
 H        -0.566898         1.257145         0.322603
 H         0.051883         0.704644        -1.425838
 H        -0.880234        -0.387380        -0.250701
 H         2.136473         1.855906        -0.766658
 H         1.857381         1.866022         0.830436
 H         5.101467         1.481866         0.933144
 H         3.843368         0.029461        -1.773148
 H         4.515109        -1.163226        -0.810992
 H         1.227613        -2.024224        -1.553856
 H         2.465759        -1.209955         2.000830
