19
Iteration:   423charge 0 multiplicity 1
 C        -0.127740         0.123292        -0.013660
 C         1.345933         0.191523        -0.021718
 C         2.358198         1.502916        -0.115225
 C         3.313666         0.469886         0.462018
 O         4.473030         0.643066         1.346790
 C         3.694227        -0.521981        -0.686251
 C         2.298219        -0.992496        -0.419993
 O         1.738729        -2.170145        -0.891837
 C         2.247142        -0.538940         0.956249
 H        -0.669159         0.429111         0.891547
 H        -0.577222         0.826817        -0.754954
 H        -0.311111        -0.915762        -0.261645
 H         2.623142         1.795633        -1.110493
 H         1.916843         2.216643         0.586247
 H         5.188492         0.162023         0.918765
 H         4.073397        -0.288738        -1.627725
 H         4.464964        -1.189767        -0.214631
 H         2.349095        -2.865917        -0.529052
 H         2.300633        -1.109680         2.001976
