19
Iteration:  2629
 C        -0.019320         0.208145        -0.122681
 C         1.422959         0.158422         0.047042
 C         2.379132         1.357769        -0.059912
 C         3.443737         0.319621         0.586729
 O         4.437018         0.952795         1.342107
 C         3.727591        -0.665350        -0.609634
 C         2.255451        -1.129341        -0.436901
 O         1.682383        -2.216142        -0.972775
 C         2.201780        -0.552808         1.029555
 H        -0.586221         0.661491         0.730567
 H        -0.354638         0.811733        -1.076559
 H        -0.431048        -0.864223        -0.233371
 H         2.745618         1.626179        -1.155576
 H         2.079352         2.286021         0.510391
 H         4.592131         1.710291         0.845826
 H         4.045777        -0.436430        -1.674992
 H         4.401623        -1.432213        -0.118755
 H         1.242118        -2.033539        -1.825348
 H         1.733834        -1.047495         2.006495
