19
Iteration:  4544charge 0 multiplicity 1
 C        -0.045161         0.404425        -0.263774
 C         1.386051         0.109304         0.031330
 C         2.263821         1.391711         0.064303
 C         3.381240         0.377801         0.530335
 O         4.549460         0.839728         1.193638
 C         3.617212        -0.623496        -0.636657
 C         2.268975        -1.126987        -0.370677
 O         1.823553        -2.362630        -0.916630
 C         2.226962        -0.565210         1.132054
 H        -0.453173         0.950906         0.573084
 H        -0.022686         1.096495        -1.112808
 H        -0.762247        -0.477285        -0.400558
 H         2.362465         1.882712        -0.970080
 H         1.811860         2.050689         0.809076
 H         4.194549         1.619957         1.775649
 H         3.930106        -0.215546        -1.593372
 H         4.485673        -1.264912        -0.367746
 H         1.670320        -2.296969        -1.867031
 H         1.946548        -1.174538         1.999771
