19
Iteration:   467charge 0 multiplicity 1
 C        -0.071853         0.134055        -0.212289
 C         1.438580         0.151963         0.009796
 C         2.349900         1.417322         0.037251
 C         3.468419         0.427434         0.625717
 O         4.576723         0.985027         1.292540
 C         3.602120        -0.566505        -0.659018
 C         2.213606        -1.105057        -0.381727
 O         1.542652        -2.216374        -1.033738
 C         2.296075        -0.637679         1.078426
 H        -0.621096         0.689863         0.576322
 H        -0.380237         0.802672        -1.070167
 H        -0.452092        -0.899616        -0.270810
 H         2.732148         1.811804        -0.908262
 H         2.054566         2.155998         0.845293
 H         5.279926         0.649497         0.733403
 H         3.882309        -0.203343        -1.646015
 H         4.339618        -1.436302        -0.483719
 H         2.009461        -3.072692        -0.836250
 H         1.988524        -1.214408         2.061202
