19
Iteration:   104charge 0 multiplicity 1
 C        -0.280189         0.163955        -0.021256
 C         1.341378         0.116122        -0.008855
 C         2.408946         1.332565         0.066652
 C         3.462986         0.369586         0.504411
 O         4.540463         0.924136         1.223181
 C         3.690583        -0.607781        -0.672697
 C         2.229195        -1.024586        -0.418605
 O         1.724957        -2.155225        -1.059075
 C         2.268513        -0.561776         1.039117
 H        -0.601999         1.017173         0.606194
 H        -0.695773         0.510698        -0.985842
 H        -0.692001        -0.783467         0.319172
 H         2.574652         2.110378        -0.776837
 H         2.209969         1.989860         0.932722
 H         5.374895         0.424689         1.096493
 H         3.854077         0.105358        -1.535517
 H         4.278079        -1.549501        -0.438711
 H         2.194927        -2.880065        -0.543871
 H         2.108592        -1.267168         1.942259
