19
Iteration:  2206charge 0 multiplicity 1
 C        -0.135603         0.266576        -0.329039
 C         1.337022         0.199234        -0.117323
 C         2.335498         1.377942        -0.052238
 C         3.405807         0.390698         0.489906
 O         4.505920         0.672633         1.361144
 C         3.696364        -0.604554        -0.644681
 C         2.308530        -1.085477        -0.279778
 O         1.736482        -2.216943        -0.805859
 C         2.165898        -0.456123         1.099989
 H        -0.624205         1.015825         0.224461
 H        -0.276808         0.764456        -1.315074
 H        -0.561150        -0.784697        -0.306172
 H         2.564106         2.017971        -1.020030
 H         1.953048         2.117341         0.704568
 H         5.175709         1.158658         0.751001
 H         3.900528        -0.098541        -1.601484
 H         4.629771        -1.237420        -0.332033
 H         2.383039        -2.884972        -0.985578
 H         1.920842        -0.996156         2.123235
