19
Iteration:  3231
 C        -0.029097         0.128778        -0.268272
 C         1.405156         0.175686        -0.044068
 C         2.448308         1.333474         0.016033
 C         3.464418         0.400325         0.484527
 O         4.555069         0.934513         1.223272
 C         3.702907        -0.754335        -0.555424
 C         2.254862        -1.082228        -0.360550
 O         1.606449        -2.198766        -0.879812
 C         2.160415        -0.542796         1.073082
 H        -0.483670         0.300490         0.699110
 H        -0.267194         0.868767        -1.035908
 H        -0.399647        -0.890709        -0.661521
 H         2.826670         1.838177        -0.771540
 H         2.031988         2.065606         0.783705
 H         4.194604         1.752457         1.614652
 H         3.867078        -0.199409        -1.517608
 H         4.500250        -1.394313        -0.158753
 H         0.847883        -1.852656        -1.425660
 H         1.733999        -0.744721         1.951859
