19
Iteration:  2361charge 0 multiplicity 1
 C        -0.072605         0.271153        -0.261809
 C         1.366037         0.137035        -0.052838
 C         2.386030         1.385945         0.086199
 C         3.461051         0.363138         0.427860
 O         4.467257         0.820285         1.399506
 C         3.693358        -0.516832        -0.733101
 C         2.230049        -1.102255        -0.412430
 O         1.620763        -2.319985        -0.766519
 C         2.306284        -0.539839         0.981309
 H        -0.469112         1.164308         0.088145
 H        -0.155046         0.026334        -1.376561
 H        -0.809715        -0.437941         0.191892
 H         2.400229         2.014526        -0.805167
 H         2.184517         1.959565         0.951556
 H         4.614904         1.767005         1.510241
 H         3.965740        -0.109193        -1.746307
 H         4.438647        -1.348317        -0.475147
 H         2.029757        -2.604085        -1.632551
 H         2.256791        -0.995972         1.872111
