19
Iteration:  4602
 C        -0.079233         0.038536        -0.234084
 C         1.435941         0.221380        -0.028262
 C         2.357969         1.407912         0.012130
 C         3.437994         0.398579         0.485867
 O         4.602772         0.778233         1.324574
 C         3.731793        -0.579461        -0.596194
 C         2.245790        -1.015793        -0.497124
 O         1.578063        -2.182061        -0.789634
 C         2.233561        -0.557576         0.953066
 H        -0.759051         0.249836         0.643477
 H        -0.541620         0.606378        -1.087216
 H        -0.250398        -0.957871        -0.557272
 H         2.507318         1.995924        -0.941557
 H         1.925053         2.092284         0.826639
 H         4.317528         1.600965         1.640920
 H         4.294460        -0.256852        -1.391774
 H         4.268138        -1.235259         0.012339
 H         1.224452        -2.099611        -1.707629
 H         2.073684        -1.071285         1.979152
