19
Iteration:   586charge 0 multiplicity 1
 C        -0.069409         0.123489         0.008237
 C         1.402740         0.168025         0.007419
 C         2.326863         1.474717        -0.011246
 C         3.401923         0.471635         0.478395
 O         4.476456         0.869070         1.347953
 C         3.778996        -0.639244        -0.669534
 C         2.252402        -1.004860        -0.568872
 O         1.586519        -2.277191        -0.947424
 C         2.283416        -0.511295         0.897445
 H        -0.528403         0.679790         0.800340
 H        -0.381112         0.666292        -0.864472
 H        -0.379892        -0.908551         0.019299
 H         2.421597         1.955736        -0.983169
 H         2.091178         2.036024         0.873034
 H         4.699528         0.024656         1.861041
 H         4.055450        -0.137823        -1.616778
 H         4.475635        -1.416495        -0.355555
 H         2.224138        -2.938662        -0.689626
 H         2.096001        -0.980817         1.953060
