19
Iteration:  1114charge 0 multiplicity 1
 C        -0.124945        -0.060520        -0.012736
 C         1.391513         0.189284        -0.107781
 C         2.372116         1.437988        -0.097396
 C         3.480889         0.419566         0.500484
 O         4.472371         0.797350         1.439224
 C         3.695846        -0.636666        -0.640314
 C         2.276675        -0.985639        -0.449109
 O         1.621128        -2.107228        -0.881146
 C         2.284432        -0.454672         0.935348
 H        -0.691465         0.470611         0.752951
 H        -0.736428         0.166286        -0.924922
 H        -0.171143        -1.087477         0.165208
 H         2.666983         2.094032        -1.156378
 H         1.969028         2.168291         0.655070
 H         5.345715         0.769084         1.027413
 H         4.047561        -0.352609        -1.661760
 H         4.206573        -1.563282        -0.257487
 H         1.705911        -2.212975        -1.837004
 H         1.951671        -0.968283         1.892316
