19
Iteration:  1838charge 0 multiplicity 1
 C        -0.092158         0.214637        -0.301208
 C         1.392686         0.148290        -0.006626
 C         2.342813         1.376363         0.025682
 C         3.386318         0.412258         0.578373
 O         4.652450         0.878917         1.118698
 C         3.731982        -0.663099        -0.453341
 C         2.205343        -1.118420        -0.376132
 O         1.694589        -2.251653        -1.045664
 C         2.219314        -0.494426         1.150925
 H        -0.800145         0.717512         0.481759
 H        -0.330266         0.884738        -1.136266
 H        -0.548226        -0.711714        -0.615479
 H         2.607481         2.019543        -0.902817
 H         1.936751         1.795433         0.957462
 H         4.751591         0.697055         2.076168
 H         4.169897        -0.492980        -1.482133
 H         4.309635        -1.544340         0.060304
 H         0.763822        -1.873509        -1.079318
 H         1.676111        -0.608234         2.165924
