19
Iteration:  2873
 C        -0.131790         0.200175        -0.274847
 C         1.335111         0.185594         0.018876
 C         2.360391         1.409113         0.031577
 C         3.415112         0.376662         0.497871
 O         4.527068         0.780280         1.365295
 C         3.706409        -0.596816        -0.738071
 C         2.308696        -1.021383        -0.456649
 O         1.676324        -2.265940        -0.718966
 C         2.266584        -0.573155         0.953362
 H        -0.827333         0.711432         0.329749
 H        -0.325065         0.603173        -1.283656
 H        -0.423909        -0.882927        -0.341004
 H         2.461538         2.037960        -0.871336
 H         2.182356         2.090064         0.904564
 H         4.968619         1.709613         1.299590
 H         4.118815        -0.063599        -1.618497
 H         4.453910        -1.327225        -0.385339
 H         1.322446        -2.399852        -1.605848
 H         2.001087        -1.048948         1.974799
