19
Iteration:  3199charge 0 multiplicity 1
 C        -0.085500         0.350705        -0.324565
 C         1.366721         0.139022         0.022780
 C         2.340926         1.288967        -0.007460
 C         3.425514         0.395924         0.547239
 O         4.551373         0.863085         1.215707
 C         3.696555        -0.646362        -0.594485
 C         2.219469        -1.074511        -0.396820
 O         1.647615        -2.271457        -0.776895
 C         2.306002        -0.622171         1.053547
 H        -0.680120         0.803280         0.463836
 H        -0.216289         1.107533        -1.168647
 H        -0.634938        -0.627961        -0.643076
 H         2.635335         1.671577        -0.969996
 H         1.955885         2.150881         0.663238
 H         4.294233         1.602344         1.758700
 H         4.121471        -0.144154        -1.503153
 H         4.538380        -1.274379        -0.319898
 H         1.719006        -2.290167        -1.735354
 H         2.160080        -1.025134         1.956440
