19
Iteration:  1088
 C        -0.012390         0.126494         0.009480
 C         1.501493         0.158205         0.093561
 C         2.405715         1.384681        -0.114672
 C         3.391363         0.361178         0.447677
 O         4.274359         0.909384         1.385002
 C         3.763038        -0.567251        -0.659868
 C         2.313931        -1.115825        -0.392350
 O         1.557305        -2.167532        -0.988662
 C         2.309679        -0.591903         0.988127
 H        -0.525395         0.709395         0.829587
 H        -0.402877         0.552604        -0.980561
 H        -0.426152        -0.966427         0.163769
 H         2.473585         1.608965        -1.236948
 H         2.248461         2.314501         0.381479
 H         5.217981         0.783943         1.166152
 H         4.125974        -0.148610        -1.646568
 H         4.519146        -1.336334        -0.401727
 H         1.573833        -2.100751        -1.946441
 H         2.115295        -0.922483         1.992936
