19
Iteration:  4296charge 0 multiplicity 1
 C        -0.156749         0.260624        -0.224888
 C         1.394156         0.156824         0.007892
 C         2.378213         1.370457        -0.134613
 C         3.465346         0.382112         0.604253
 O         4.573341         0.995484         1.213107
 C         3.683048        -0.654212        -0.490950
 C         2.255231        -1.150452        -0.356168
 O         1.689173        -2.263147        -1.001427
 C         2.222075        -0.641160         1.087073
 H        -0.569047         1.189551         0.229321
 H        -0.385087         0.255607        -1.328089
 H        -0.709222        -0.549055         0.189412
 H         2.610669         1.704733        -1.140719
 H         2.323858         2.276012         0.536635
 H         4.649646         0.489524         2.078285
 H         4.156180        -0.244504        -1.417770
 H         4.257965        -1.490190        -0.012142
 H         0.965953        -1.812727        -1.452358
 H         1.921807        -0.799087         2.132659
