19
Iteration:  3373charge 0 multiplicity 1
 C        -0.101185         0.068105        -0.264684
 C         1.440593         0.217993         0.040934
 C         2.413343         1.393109        -0.067030
 C         3.451399         0.453594         0.537805
 O         4.671406         0.795424         1.237899
 C         3.601646        -0.612927        -0.586023
 C         2.201052        -1.144842        -0.334736
 O         1.670441        -2.206222        -0.944675
 C         2.156867        -0.499966         1.132026
 H        -0.722825         0.901968         0.035348
 H        -0.131804         0.080859        -1.347193
 H        -0.710470        -0.810018         0.130137
 H         2.677242         1.981777        -1.112283
 H         2.042508         2.146372         0.749423
 H         4.402703         1.483863         1.888296
 H         4.005774        -0.227221        -1.563123
 H         4.251993        -1.439185        -0.268366
 H         1.259093        -1.782082        -1.748403
 H         1.813939        -0.842291         2.165837
