19
Iteration:   305
 C         0.011311        -0.017729        -0.059230
 C         1.442689         0.265084        -0.058263
 C         2.389817         1.459060         0.107377
 C         3.402092         0.389101         0.521740
 O         4.494762         0.730519         1.295874
 C         3.643586        -0.539972        -0.686736
 C         2.177560        -1.026343        -0.414402
 O         1.595695        -2.223618        -0.958529
 C         2.236890        -0.435232         0.980968
 H        -0.576174         0.711297         0.578842
 H        -0.312549         0.094336        -1.174567
 H        -0.279102        -1.106208         0.240996
 H         2.665909         1.958610        -0.855898
 H         2.176194         2.089702         1.084049
 H         5.094082         1.349303         0.763893
 H         3.907127        -0.115177        -1.817058
 H         4.495208        -1.238033        -0.458582
 H         2.272366        -2.823131        -1.335319
 H         1.764538        -0.728711         1.999394
