19
Iteration:  3968charge 0 multiplicity 1
 C        -0.188570         0.163811        -0.241191
 C         1.346099         0.242025        -0.108448
 C         2.471021         1.393711        -0.035221
 C         3.430521         0.390354         0.494043
 O         4.590054         0.851877         1.212724
 C         3.693620        -0.728408        -0.478655
 C         2.233024        -1.061912        -0.378499
 O         1.654060        -2.259957        -0.886309
 C         2.209940        -0.386406         1.103597
 H        -0.774345         0.693147         0.506117
 H        -0.462772         0.588215        -1.220561
 H        -0.244492        -0.951287        -0.219543
 H         2.555527         1.922815        -0.926923
 H         2.179995         2.106262         0.726050
 H         4.291915         1.106739         2.104806
 H         4.244077        -0.393920        -1.465515
 H         4.286447        -1.574863        -0.148406
 H         2.043317        -2.575425        -1.704280
 H         1.939240        -1.116479         1.974434
