19
Iteration:    49
 C        -0.133096         0.177438        -0.057258
 C         1.380913         0.146129        -0.029433
 C         2.286842         1.302504         0.045161
 C         3.443188         0.431829         0.472050
 O         4.572349         0.806970         1.354260
 C         3.652721        -0.515406        -0.840911
 C         2.327901        -1.065161        -0.352349
 O         1.671361        -2.239513        -0.889675
 C         2.300709        -0.589565         0.977600
 H        -0.494825         0.440415         0.937278
 H        -0.510639         0.780930        -0.871791
 H        -0.519832        -0.820054        -0.285618
 H         2.397594         1.860654        -0.946744
 H         1.979165         1.798770         0.944403
 H         4.787417         1.779552         1.209886
 H         3.938376        -0.236240        -1.855402
 H         4.493552        -1.162910        -0.637425
 H         0.975435        -1.762478        -1.433740
 H         2.262118        -0.990775         2.049494
