19
Iteration:   572
 C        -0.156593         0.074009        -0.003881
 C         1.369605         0.204212        -0.067423
 C         2.292760         1.479916        -0.026595
 C         3.466593         0.475919         0.424867
 O         4.504472         0.711572         1.340940
 C         3.718666        -0.541483        -0.688568
 C         2.267943        -1.007583        -0.542395
 O         1.666126        -2.226007        -0.898218
 C         2.312617        -0.429389         0.979063
 H        -0.425370         0.718276         0.858017
 H        -0.657233         0.282446        -0.936016
 H        -0.553448        -0.884140         0.181520
 H         2.485110         2.137587        -0.915197
 H         1.991890         2.159871         0.700665
 H         4.550329        -0.102740         1.861677
 H         4.324222        -0.515102        -1.598778
 H         4.238748        -1.193677        -0.079063
 H         2.379324        -2.929947        -0.871395
 H         1.987436        -1.067934         1.921739
