19
Iteration:  2815charge 0 multiplicity 1
 C        -0.138762         0.296987        -0.080433
 C         1.379320         0.170898        -0.077062
 C         2.329173         1.410924        -0.134445
 C         3.428391         0.420493         0.507430
 O         4.432592         0.777327         1.428315
 C         3.699001        -0.573723        -0.680541
 C         2.302847        -1.115444        -0.399728
 O         1.765362        -2.334393        -0.875036
 C         2.218759        -0.500738         1.028154
 H        -0.384118         0.831650         0.803122
 H        -0.389999         0.761163        -1.060218
 H        -0.514514        -0.712550        -0.061449
 H         2.467789         1.780154        -1.221322
 H         2.091682         2.168700         0.556020
 H         5.213850         0.925315         0.960170
 H         4.071387         0.000868        -1.572718
 H         4.348358        -1.319051        -0.189287
 H         1.511607        -2.427499        -1.822757
 H         2.100653        -0.985229         1.924411
