19
Iteration:  1685charge 0 multiplicity 1
 C        -0.034596         0.139490        -0.363174
 C         1.480873         0.161474        -0.026040
 C         2.352410         1.357000         0.055035
 C         3.431553         0.358520         0.580967
 O         4.508837         0.953837         1.250287
 C         3.689803        -0.694738        -0.660240
 C         2.295961        -1.127861        -0.355489
 O         1.583881        -2.118323        -0.929565
 C         2.279489        -0.597309         1.101644
 H        -0.390308         0.970488         0.389235
 H        -0.085736         0.426175        -1.439054
 H        -0.718793        -0.697119        -0.178068
 H         2.486669         2.033294        -0.814462
 H         2.051257         2.017853         0.837583
 H         4.524035         0.644245         2.224977
 H         3.865034        -0.330652        -1.704376
 H         4.421462        -1.501000        -0.358499
 H         0.690423        -1.731898        -1.026430
 H         2.045149        -0.928603         2.058790
