19
Iteration:  3623charge 0 multiplicity 1
 C        -0.096121         0.450214        -0.149181
 C         1.416206         0.211338        -0.111947
 C         2.273865         1.367569        -0.147066
 C         3.418688         0.399750         0.581934
 O         4.552435         0.793669         1.233800
 C         3.634533        -0.591563        -0.557227
 C         2.215524        -1.130987        -0.376882
 O         1.905097        -2.406723        -0.852113
 C         2.179594        -0.578509         1.015308
 H        -0.268974         1.031824         0.758697
 H        -0.436909         0.930770        -1.006760
 H        -0.715492        -0.428506        -0.124230
 H         2.571933         1.944096        -0.998573
 H         1.881519         2.089776         0.701023
 H         4.291395         1.182910         2.032674
 H         3.941322        -0.214121        -1.569131
 H         4.358420        -1.376646        -0.331224
 H         1.055233        -2.337084        -1.309831
 H         1.820343        -1.130217         1.795974
