19
Iteration:  3178charge 0 multiplicity 1
 C        -0.134018         0.381066        -0.280303
 C         1.301303         0.157665        -0.049331
 C         2.302562         1.347504        -0.055821
 C         3.444747         0.375014         0.490283
 O         4.582185         0.749152         1.260042
 C         3.683070        -0.586300        -0.672355
 C         2.300092        -1.021508        -0.353764
 O         1.745826        -2.329055        -0.739686
 C         2.210204        -0.534669         1.097888
 H        -0.521736         1.093689         0.422252
 H        -0.243413         0.832980        -1.360101
 H        -0.742813        -0.610139        -0.291474
 H         2.594385         1.989810        -0.984519
 H         1.982773         2.048420         0.814328
 H         4.155312         1.246655         1.973439
 H         3.845465        -0.198508        -1.693809
 H         4.388750        -1.432409        -0.549118
 H         2.276491        -2.588883        -1.537315
 H         2.036935        -1.107312         1.887349
