19
Iteration:   310charge 0 multiplicity 1
 C        -0.030923         0.007117        -0.091418
 C         1.434864         0.244338        -0.004475
 C         2.389221         1.445877         0.098915
 C         3.401833         0.392323         0.544112
 O         4.524364         0.735508         1.271362
 C         3.636727        -0.553956        -0.682021
 C         2.222238        -1.042310        -0.416460
 O         1.618050        -2.182013        -0.961915
 C         2.186630        -0.458711         0.982989
 H        -0.680823         0.656908         0.458564
 H        -0.438033        -0.003186        -1.060347
 H        -0.037014        -1.015210         0.241207
 H         2.720984         1.989338        -0.791388
 H         2.234895         2.079177         0.915636
 H         4.975504         1.299405         0.662743
 H         3.791050        -0.174826        -1.618252
 H         4.416104        -1.254862        -0.430306
 H         2.285607        -2.740705        -1.355563
 H         1.869491        -0.677145         1.967438
