19
Iteration:  2516
 C        -0.082218         0.357366        -0.174547
 C         1.408065         0.161660        -0.014410
 C         2.301175         1.411287         0.084582
 C         3.352910         0.455873         0.486856
 O         4.490550         0.856131         1.231746
 C         3.686694        -0.514553        -0.607622
 C         2.254120        -1.097336        -0.484515
 O         1.730159        -2.368516        -0.836603
 C         2.316164        -0.649953         0.975318
 H        -0.605482         1.128703         0.417960
 H        -0.262712         0.420658        -1.388779
 H        -0.570548        -0.593163         0.000107
 H         2.531855         1.949186        -0.924289
 H         2.057969         2.000679         0.943497
 H         4.407365         0.349488         2.091821
 H         4.020719        -0.100312        -1.643399
 H         4.344229        -1.283647        -0.221759
 H         1.979332        -2.703275        -1.691099
 H         2.036108        -1.032141         2.023204
