19
Iteration:  3760charge 0 multiplicity 1
 C        -0.099997         0.406726        -0.326507
 C         1.403017         0.159031        -0.006683
 C         2.388741         1.368975        -0.008775
 C         3.423172         0.407998         0.439516
 O         4.462409         0.774562         1.241648
 C         3.684597        -0.586449        -0.702667
 C         2.329631        -1.133362        -0.292880
 O         1.751967        -2.321653        -0.743177
 C         2.165575        -0.586305         1.107906
 H        -0.488331         1.302547         0.119897
 H        -0.424571         0.306658        -1.359120
 H        -0.579273        -0.522869         0.006452
 H         2.747998         1.936273        -0.964779
 H         2.219296         2.114383         0.767594
 H         4.207970         1.296005         2.072018
 H         3.876758        -0.211156        -1.699754
 H         4.517815        -1.208214        -0.515461
 H         1.498895        -2.170538        -1.690397
 H         1.773737        -1.110649         1.894979
