19
Iteration:  2766charge 0 multiplicity 1
 C        -0.125695         0.152541        -0.183067
 C         1.379058         0.146563        -0.042144
 C         2.409970         1.299163        -0.037999
 C         3.483356         0.361072         0.553239
 O         4.484856         1.024851         1.304998
 C         3.789248        -0.661620        -0.509596
 C         2.244452        -1.094244        -0.333715
 O         1.601502        -2.203744        -1.001199
 C         2.202757        -0.536630         1.017024
 H        -0.542350         1.033995         0.502417
 H        -0.404532         0.188595        -1.248570
 H        -0.355355        -0.867896         0.242725
 H         2.692499         1.895949        -0.897678
 H         2.046834         2.110650         0.759087
 H         5.379633         0.674536         0.904020
 H         3.961216        -0.370115        -1.601241
 H         4.439129        -1.490121        -0.162746
 H         1.232414        -1.914325        -1.846265
 H         1.879383        -0.967145         2.045114
