19
Iteration:  2108charge 0 multiplicity 1
 C        -0.038457         0.355086        -0.146048
 C         1.395039         0.176445        -0.049873
 C         2.387205         1.318761        -0.134302
 C         3.392182         0.377431         0.595420
 O         4.518537         0.875505         1.287739
 C         3.654255        -0.680658        -0.570877
 C         2.221573        -1.085271        -0.415590
 O         1.732896        -2.247977        -1.001714
 C         2.176023        -0.559149         1.052245
 H        -0.425172         1.198836         0.378616
 H        -0.207311         0.485998        -1.262457
 H        -0.666204        -0.538926         0.220149
 H         2.829606         1.766884        -1.073184
 H         2.071986         2.282906         0.397868
 H         4.036601         1.138582         2.119801
 H         4.061641        -0.385668        -1.510976
 H         4.369611        -1.480760        -0.203947
 H         2.098097        -2.930519        -0.447372
 H         1.867243        -0.980256         1.942544
