19
Iteration:   998
 C        -0.098579         0.128348        -0.237139
 C         1.359030         0.134929         0.011169
 C         2.306222         1.388771         0.087285
 C         3.455044         0.400989         0.490968
 O         4.568976         0.760435         1.332129
 C         3.561697        -0.416319        -0.772545
 C         2.174646        -1.024919        -0.383353
 O         1.800144        -2.211573        -0.962533
 C         2.319673        -0.515788         1.094359
 H        -0.738909         0.736266         0.500271
 H        -0.288706         0.688611        -1.171414
 H        -0.429157        -0.967248        -0.284087
 H         2.452512         2.099916        -0.833579
 H         2.033993         2.055623         1.011532
 H         5.050818        -0.045146         1.347735
 H         3.663871         0.129853        -1.749156
 H         4.270030        -1.287711        -0.796363
 H         1.476476        -2.990233        -0.459841
 H         1.988896        -0.918337         2.148801
