19
Iteration:  2369charge 0 multiplicity 1
 C        -0.129892         0.320076        -0.306313
 C         1.432233         0.113502        -0.035326
 C         2.302653         1.342706         0.044968
 C         3.423036         0.390761         0.479542
 O         4.443575         0.792289         1.390101
 C         3.675016        -0.544759        -0.789802
 C         2.302599        -1.073698        -0.378223
 O         1.651851        -2.302228        -0.742602
 C         2.336120        -0.571682         1.005798
 H        -0.473407         1.339951        -0.035699
 H        -0.384869         0.338729        -1.301636
 H        -0.709049        -0.509912         0.196341
 H         2.573741         2.053399        -0.740531
 H         2.336365         1.890463         0.963532
 H         4.607326         1.783080         1.432478
 H         3.861854        -0.158595        -1.754207
 H         4.396590        -1.374807        -0.541243
 H         2.037382        -2.450812        -1.653160
 H         2.432107        -1.057280         1.955292
