19
Iteration:  2783charge 0 multiplicity 1
 C        -0.112619         0.162351        -0.089263
 C         1.419726         0.209586        -0.073328
 C         2.404938         1.339499        -0.054430
 C         3.409756         0.353958         0.553511
 O         4.454298         0.955202         1.284759
 C         3.696479        -0.732210        -0.548446
 C         2.270840        -1.071848        -0.426842
 O         1.748905        -2.197951        -0.969875
 C         2.123782        -0.526819         1.104623
 H        -0.537922         0.917325         0.465696
 H        -0.594381         0.483901        -1.026596
 H        -0.563866        -0.784554         0.185912
 H         2.567154         1.877202        -1.030456
 H         2.309116         2.145179         0.604566
 H         5.318932         0.939684         0.753731
 H         4.361923        -0.386906        -1.306958
 H         4.337644        -1.578374        -0.222730
 H         1.451362        -2.055707        -1.870053
 H         1.852838        -1.056400         1.942959
