19
Iteration:  2199charge 0 multiplicity 1
 C        -0.153418         0.216495        -0.355781
 C         1.363424         0.196405        -0.059172
 C         2.331738         1.436962        -0.087031
 C         3.429908         0.357185         0.528153
 O         4.525932         0.672404         1.323672
 C         3.722632        -0.562796        -0.611860
 C         2.254887        -1.098430        -0.234691
 O         1.693298        -2.201747        -0.846043
 C         2.184383        -0.473054         1.087294
 H        -0.725928         0.931539         0.299805
 H        -0.095701         0.447541        -1.454688
 H        -0.667448        -0.716823        -0.239861
 H         2.816697         1.876450        -0.938155
 H         1.862200         2.296234         0.524225
 H         5.273112         1.335408         1.122787
 H         3.813342        -0.245676        -1.654831
 H         4.499788        -1.249206        -0.396757
 H         2.472103        -2.760296        -1.042816
 H         1.945740        -0.895235         2.063311
