19
Iteration:  3385charge 0 multiplicity 1
 C        -0.012611         0.091347        -0.281792
 C         1.371370         0.175231         0.021049
 C         2.400227         1.391712        -0.035676
 C         3.427506         0.413653         0.543207
 O         4.599214         0.794546         1.184782
 C         3.653214        -0.642008        -0.532469
 C         2.246336        -1.049232        -0.248422
 O         1.631849        -2.216568        -1.006362
 C         2.184572        -0.445313         1.113000
 H        -0.543693         0.809924         0.270915
 H        -0.319961         0.083325        -1.331000
 H        -0.179429        -0.958761         0.094864
 H         2.831457         1.883094        -1.072018
 H         2.146817         2.307884         0.704326
 H         4.425887         1.330951         1.926797
 H         3.779298        -0.361519        -1.622520
 H         4.484396        -1.227438        -0.124291
 H         0.951471        -1.951028        -1.630432
 H         1.796621        -0.963033         2.098203
