19
Iteration:  2253
 C        -0.103751         0.344793        -0.228147
 C         1.366374         0.175039        -0.052290
 C         2.413973         1.327642        -0.072398
 C         3.468557         0.330376         0.556507
 O         4.381681         0.993879         1.368084
 C         3.746853        -0.600319        -0.649900
 C         2.324188        -1.145959        -0.432257
 O         1.688938        -2.308271        -0.888904
 C         2.202580        -0.572134         0.965984
 H        -0.424590         0.800592         0.673826
 H        -0.493697         1.133017        -0.923886
 H        -0.485211        -0.651269        -0.295349
 H         2.746139         1.871739        -1.010558
 H         2.098403         2.192038         0.686412
 H         5.105649         0.352210         1.699506
 H         3.865686        -0.294166        -1.702014
 H         4.457946        -1.435320        -0.504745
 H         1.336180        -2.787810        -0.096894
 H         1.947655        -1.031052         1.870023
