19
Iteration:  3213charge 0 multiplicity 1
 C        -0.020642         0.272916        -0.288476
 C         1.468354         0.213115         0.021719
 C         2.370073         1.391355        -0.028277
 C         3.419331         0.345778         0.558842
 O         4.530307         0.920445         1.191008
 C         3.734142        -0.609633        -0.581014
 C         2.288000        -1.121528        -0.328106
 O         1.590067        -2.295691        -0.837400
 C         2.189142        -0.653179         1.067320
 H        -0.678189         0.476311         0.550728
 H        -0.160547         1.042230        -1.158555
 H        -0.286475        -0.739530        -0.646583
 H         2.489671         1.982011        -1.089793
 H         2.191648         2.175664         0.734259
 H         4.213908         1.744842         1.639161
 H         3.941564        -0.351779        -1.618000
 H         4.209040        -1.518728        -0.211901
 H         1.176832        -2.127879        -1.733826
 H         1.913915        -1.321556         1.938021
