19
Iteration:  1779charge 0 multiplicity 1
 C        -0.099644         0.345694        -0.063381
 C         1.411517         0.250243        -0.092360
 C         2.412125         1.372304        -0.136250
 C         3.421781         0.394014         0.456481
 O         4.379256         0.732749         1.485822
 C         3.780430        -0.566512        -0.750290
 C         2.311464        -1.096991        -0.435720
 O         1.601863        -2.346171        -0.752420
 C         2.279356        -0.563133         0.880842
 H        -0.314463         0.820941         0.795065
 H        -0.366530         0.849745        -1.016908
 H        -0.483753        -0.672008         0.014195
 H         2.624415         1.935856        -1.086327
 H         2.108755         2.326434         0.537288
 H         4.186068         1.523493         1.925532
 H         3.992446        -0.127315        -1.754575
 H         4.534834        -1.398404        -0.424909
 H         1.901659        -2.550408        -1.643788
 H         2.220570        -1.102729         1.734357
