19
Iteration:  1562charge 0 multiplicity 1
 C        -0.103255         0.236596        -0.205695
 C         1.389569         0.113027        -0.017560
 C         2.387542         1.304812        -0.040376
 C         3.475269         0.359092         0.594142
 O         4.479956         0.906844         1.281735
 C         3.867573        -0.617229        -0.630329
 C         2.290059        -1.076396        -0.451794
 O         1.487699        -2.115970        -0.891448
 C         2.261607        -0.616182         1.003393
 H        -0.506614         1.054874         0.560648
 H        -0.279905         0.660959        -1.260827
 H        -0.672689        -0.717767        -0.101845
 H         2.546466         1.774134        -1.057524
 H         2.103412         2.064695         0.653918
 H         4.050854         1.326220         2.095027
 H         4.089764        -0.269810        -1.655907
 H         4.512984        -1.457508        -0.284397
 H         2.089581        -2.874998        -1.108787
 H         2.072173        -1.226169         2.009423
