19
Iteration:  2185
 C        -0.067314         0.129856        -0.382647
 C         1.409782         0.201807         0.028974
 C         2.406700         1.402835        -0.113908
 C         3.401341         0.477630         0.585561
 O         4.570720         0.690695         1.373099
 C         3.589410        -0.607141        -0.593461
 C         2.239265        -1.044572        -0.355185
 O         1.616909        -2.201642        -0.900960
 C         2.252954        -0.487398         1.110915
 H        -0.579972         0.897271         0.024510
 H        -0.327974         0.270434        -1.442704
 H        -0.451503        -0.858951        -0.036390
 H         2.502128         1.729307        -1.202277
 H         2.158200         2.287011         0.555975
 H         4.760718         1.540365         1.045424
 H         3.862796        -0.163689        -1.544377
 H         4.355842        -1.373763        -0.262316
 H         2.318927        -2.857769        -1.119809
 H         1.921656        -0.745247         2.193229
