19
Iteration:  2228
 C        -0.026885         0.332444        -0.270141
 C         1.396882         0.172360        -0.111863
 C         2.328878         1.424699        -0.005973
 C         3.407967         0.381081         0.529138
 O         4.413562         0.815346         1.369998
 C         3.669942        -0.575162        -0.633766
 C         2.218347        -1.070699        -0.462612
 O         1.710095        -2.340882        -0.782471
 C         2.259073        -0.560874         0.966769
 H        -0.439301         0.939142         0.551652
 H        -0.162475         1.041403        -1.127257
 H        -0.558102        -0.666064        -0.387288
 H         2.717293         2.046380        -0.894098
 H         1.815769         2.133541         0.671624
 H         5.297270         0.702685         1.004673
 H         4.027671        -0.293364        -1.643366
 H         4.346166        -1.455248        -0.254061
 H         2.388099        -2.934281        -0.342060
 H         1.840926        -0.925066         2.001640
