19
Iteration:   318charge 0 multiplicity 1
 C        -0.107954         0.040773        -0.143338
 C         1.379190         0.254935         0.010517
 C         2.406652         1.430477         0.030612
 C         3.404394         0.390968         0.546541
 O         4.574983         0.749524         1.249268
 C         3.617288        -0.590908        -0.650981
 C         2.296143        -1.052031        -0.395166
 O         1.640673        -2.108526        -0.969454
 C         2.181327        -0.565432         1.057966
 H        -0.764968         0.632138         0.527590
 H        -0.540841        -0.097116        -1.159127
 H        -0.174843        -1.006422         0.358289
 H         2.660168         2.142938        -0.810041
 H         2.063225         2.172328         0.856822
 H         5.035333         1.309841         0.638543
 H         3.786794        -0.035875        -1.700174
 H         4.336725        -1.361425        -0.371738
 H         2.370488        -2.617165        -1.358622
 H         1.960397        -0.869129         2.186519
