19
Iteration:  1602
 C        -0.136364         0.357270        -0.044481
 C         1.404158         0.228027        -0.070698
 C         2.365618         1.470248        -0.083703
 C         3.385021         0.401844         0.509498
 O         4.592965         0.758990         1.333916
 C         3.614272        -0.654733        -0.560589
 C         2.206297        -1.107130        -0.397410
 O         1.848413        -2.443971        -0.991509
 C         2.119211        -0.512923         0.995732
 H        -0.504201         1.116204         0.555058
 H        -0.367487         0.800528        -0.999444
 H        -0.567698        -0.667174         0.082818
 H         2.766959         1.905015        -0.972672
 H         1.787546         2.185823         0.611891
 H         4.389805         1.590979         1.748971
 H         4.065953        -0.288020        -1.508763
 H         4.352241        -1.369725        -0.182266
 H         2.031495        -2.401726        -1.930871
 H         1.802433        -0.690276         2.054326
