19
Iteration:  1946charge 0 multiplicity 1
 C        -0.089444         0.307566        -0.080338
 C         1.411716         0.249567        -0.111318
 C         2.465977         1.417746        -0.060772
 C         3.398856         0.377258         0.542156
 O         4.503249         0.720354         1.329458
 C         3.635042        -0.600172        -0.577541
 C         2.167991        -1.035336        -0.424334
 O         1.884316        -2.393627        -0.959510
 C         2.131842        -0.490535         0.955304
 H        -0.616781         1.277361         0.166772
 H        -0.469450        -0.008654        -1.073599
 H        -0.528336        -0.310573         0.666876
 H         2.703860         1.838747        -1.024681
 H         2.090163         2.333395         0.470664
 H         4.300287         1.537251         1.716779
 H         4.177856        -0.167271        -1.455182
 H         4.321974        -1.443365        -0.233147
 H         0.962651        -2.680018        -0.807364
 H         1.717562        -0.899340         1.848241
