19
Iteration:  1340
 C        -0.075495         0.372660        -0.332828
 C         1.377517         0.095021         0.004408
 C         2.284962         1.314700         0.144500
 C         3.393183         0.289792         0.514748
 O         4.476173         0.905053         1.191776
 C         3.669452        -0.497368        -0.743682
 C         2.282295        -1.046746        -0.428160
 O         1.795510        -2.297022        -0.728798
 C         2.271546        -0.624214         1.057072
 H        -0.564079         1.086898         0.318857
 H        -0.215912         0.550992        -1.358883
 H        -0.708893        -0.486080        -0.085061
 H         2.514291         2.046186        -0.764628
 H         2.066367         2.074440         0.940348
 H         4.860361         0.276882         1.822593
 H         3.809900        -0.001305        -1.692968
 H         4.456940        -1.247210        -0.774934
 H         1.012682        -2.055745        -1.268273
 H         2.296657        -1.392804         1.984510
