19
Iteration:  4514
 C        -0.209714         0.232617        -0.103073
 C         1.351920         0.210033        -0.096153
 C         2.413473         1.362453        -0.044822
 C         3.405493         0.338879         0.549624
 O         4.536322         0.759490         1.309326
 C         3.737079        -0.571439        -0.621611
 C         2.313764        -1.045127        -0.509257
 O         1.795806        -2.295843        -0.785835
 C         2.139945        -0.492715         0.941010
 H        -0.499039         1.097615         0.538097
 H        -0.534763         0.448377        -1.154612
 H        -0.554509        -0.695579         0.286297
 H         2.597389         1.976891        -0.928109
 H         2.055900         2.108396         0.762649
 H         4.272281         1.601576         1.703723
 H         4.012651         0.033169        -1.472761
 H         4.532069        -1.236657        -0.366044
 H         1.430933        -2.398326        -1.691056
 H         1.869609        -1.350641         1.678490
