19
Iteration:  1788
 C        -0.081739         0.315100        -0.095093
 C         1.391343         0.191147        -0.079666
 C         2.424997         1.350952        -0.137853
 C         3.476996         0.354082         0.455822
 O         4.404961         0.765917         1.476759
 C         3.776735        -0.561464        -0.711373
 C         2.225135        -1.083261        -0.475610
 O         1.628700        -2.318579        -0.748622
 C         2.287579        -0.513447         0.925544
 H        -0.400817         0.827894         0.785229
 H        -0.437307         1.011415        -0.859070
 H        -0.669496        -0.662186        -0.147089
 H         2.698872         1.675610        -1.144113
 H         2.217882         2.238425         0.568650
 H         3.887208         1.387249         1.955340
 H         4.005811        -0.035184        -1.652660
 H         4.460735        -1.372473        -0.712668
 H         1.765899        -2.418154        -1.698768
 H         2.231665        -1.028260         1.801171
