19
Iteration:  3761
 C        -0.091983         0.404240        -0.327773
 C         1.401499         0.158328        -0.010391
 C         2.388868         1.371017        -0.012710
 C         3.420241         0.414073         0.430823
 O         4.464268         0.771495         1.244611
 C         3.686366        -0.584524        -0.692662
 C         2.323774        -1.134331        -0.298211
 O         1.751369        -2.322413        -0.740087
 C         2.170212        -0.589940         1.103163
 H        -0.485518         1.310062         0.167323
 H        -0.442268         0.298888        -1.370071
 H        -0.543415        -0.507378         0.026537
 H         2.760414         1.948020        -0.958131
 H         2.231307         2.084192         0.762617
 H         4.170808         1.311912         2.079678
 H         3.846475        -0.170031        -1.675533
 H         4.525235        -1.197593        -0.490327
 H         1.443630        -2.182143        -1.675240
 H         1.773097        -1.129502         1.879091
