19
Iteration:  3026
 C        -0.132557         0.303927        -0.255192
 C         1.298984         0.218405        -0.009346
 C         2.317894         1.424904         0.011977
 C         3.361404         0.422375         0.512628
 O         4.595035         0.699430         1.220779
 C         3.718536        -0.569326        -0.632582
 C         2.285562        -1.040997        -0.425550
 O         1.767815        -2.325155        -0.729746
 C         2.207643        -0.539439         0.983575
 H        -0.693108         0.630690         0.600140
 H        -0.384519         0.787920        -1.251985
 H        -0.515886        -0.758430        -0.386685
 H         2.606903         1.841570        -1.003271
 H         2.221936         2.192288         0.720836
 H         4.494255         1.329728         1.986881
 H         4.063314        -0.140846        -1.617806
 H         4.247988        -1.393955        -0.160547
 H         1.849994        -2.447606        -1.711089
 H         1.929986        -1.244149         1.863784
