19
Iteration:  4155charge 0 multiplicity 1
 C        -0.016137         0.271498        -0.320570
 C         1.442593         0.050897        -0.111333
 C         2.394339         1.220629        -0.012449
 C         3.441475         0.363970         0.523218
 O         4.501868         1.103827         1.275585
 C         3.764453        -0.706877        -0.557987
 C         2.219181        -1.111908        -0.377269
 O         1.511969        -2.117257        -0.906018
 C         2.237588        -0.622884         1.096113
 H        -0.479728         1.020249         0.426935
 H        -0.286220         0.811507        -1.296818
 H        -0.743277        -0.507548        -0.311165
 H         2.725379         1.829384        -0.895311
 H         1.911008         1.866827         0.804540
 H         4.819673         0.596287         2.018173
 H         4.134602        -0.318599        -1.531054
 H         4.375661        -1.493110        -0.148620
 H         1.983002        -2.951825        -0.927021
 H         1.844199        -0.784177         2.182654
