19
Iteration:  3206
 C        -0.043740         0.342239        -0.313579
 C         1.357734         0.199476         0.016000
 C         2.328443         1.339012        -0.021141
 C         3.410311         0.368645         0.542191
 O         4.550106         0.892206         1.204826
 C         3.729443        -0.631609        -0.572623
 C         2.281213        -1.065963        -0.373290
 O         1.606944        -2.304412        -0.804893
 C         2.285288        -0.666877         1.060876
 H        -0.665148         0.618173         0.592588
 H        -0.135763         0.966183        -1.143357
 H        -0.312585        -0.634868        -0.660056
 H         2.694067         1.737024        -0.974256
 H         1.990637         2.125210         0.638841
 H         4.222476         1.629640         1.654455
 H         3.909304        -0.189560        -1.569147
 H         4.386559        -1.468580        -0.210560
 H         1.491547        -2.199915        -1.770597
 H         2.036236        -1.184351         2.106153
