19
Iteration:  4201charge 0 multiplicity 1
 C        -0.073030         0.212565        -0.264217
 C         1.379590         0.310372        -0.033091
 C         2.482394         1.385234        -0.083628
 C         3.380156         0.361876         0.473296
 O         4.413461         0.761889         1.314126
 C         3.641393        -0.587718        -0.619607
 C         2.313035        -1.015857        -0.324478
 O         1.732956        -2.264103        -0.820144
 C         2.151100        -0.484925         0.979161
 H        -0.796239         0.500022         0.598858
 H        -0.549368         0.790377        -1.122649
 H        -0.291570        -0.839327        -0.474315
 H         2.737705         1.728672        -1.133144
 H         2.462998         2.273393         0.565938
 H         5.046498         0.113512         1.264485
 H         3.891578        -0.274044        -1.645635
 H         4.300303        -1.350721        -0.136820
 H         2.149852        -2.914973        -0.202673
 H         1.716781        -0.733824         1.971403
