19
Iteration:  4979
 C        -0.124545         0.391458        -0.042463
 C         1.302295         0.119388        -0.105746
 C         2.297216         1.342223        -0.063752
 C         3.366862         0.350652         0.561266
 O         4.372638         0.907077         1.266557
 C         3.796779        -0.625031        -0.562744
 C         2.316579        -1.053670        -0.424120
 O         1.919100        -2.299408        -0.912214
 C         2.166625        -0.626746         0.994167
 H        -0.318945         0.934371         0.880517
 H        -0.225854         1.109149        -0.854107
 H        -0.776833        -0.463153        -0.214061
 H         2.458003         2.036567        -0.910597
 H         1.959056         2.051435         0.784638
 H         5.145505         0.198562         1.380091
 H         4.105821        -0.054705        -1.532674
 H         4.603670        -1.458434        -0.558414
 H         1.298232        -2.129482        -1.631007
 H         1.934246        -1.299951         1.826769
