19
Iteration:  4340
 C        -0.142291         0.085106        -0.160608
 C         1.422805         0.321537        -0.113098
 C         2.450029         1.433658        -0.102188
 C         3.443546         0.413429         0.475165
 O         4.511261         0.784403         1.417032
 C         3.693444        -0.653803        -0.625205
 C         2.217721        -1.079800        -0.439464
 O         1.636136        -2.275952        -0.754291
 C         2.269128        -0.486333         0.886183
 H        -0.461742         0.772787         0.640914
 H        -0.530053         0.435245        -1.129353
 H        -0.300683        -0.914991         0.049100
 H         2.715833         1.890931        -1.039893
 H         2.184395         2.226966         0.650875
 H         4.114683         1.299272         2.200465
 H         3.836426        -0.222124        -1.679630
 H         4.419764        -1.448261        -0.368945
 H         1.663715        -2.388497        -1.709453
 H         2.060416        -0.766906         1.855068
