19
Iteration:   706
 C        -0.070696         0.097150        -0.064658
 C         1.428450         0.164442         0.029768
 C         2.350717         1.528631        -0.027729
 C         3.413710         0.432647         0.537517
 O         4.451984         0.796480         1.433987
 C         3.607724        -0.494079        -0.862393
 C         2.313754        -1.064640        -0.438395
 O         1.580154        -2.230029        -0.988100
 C         2.387568        -0.571989         1.003933
 H        -0.504753         0.814696         0.639653
 H        -0.420411         0.215721        -1.101633
 H        -0.398035        -0.941548         0.162316
 H         2.628805         1.882016        -1.043385
 H         2.027141         2.297433         0.672493
 H         4.830967         0.038985         1.839979
 H         3.626127         0.061775        -1.826936
 H         4.424036        -1.124053        -0.631354
 H         2.156170        -3.017437        -0.806839
 H         2.246552        -0.959328         1.941555
