19
Iteration:  4703
 C        -0.032822         0.291394        -0.199937
 C         1.408110         0.113400         0.014724
 C         2.317206         1.338893         0.119344
 C         3.355205         0.383391         0.564759
 O         4.544860         0.961202         1.232774
 C         3.693058        -0.598108        -0.606017
 C         2.253747        -1.092592        -0.480345
 O         1.711767        -2.333650        -0.944819
 C         2.246247        -0.626362         0.964915
 H        -0.423959         1.275926         0.178228
 H        -0.260397         0.411361        -1.278149
 H        -0.716078        -0.452223         0.307880
 H         2.634164         1.997273        -0.707208
 H         2.028447         2.057239         0.969141
 H         4.329166         1.338384         2.190856
 H         3.952506        -0.375180        -1.573148
 H         4.381340        -1.297436        -0.190670
 H         1.317618        -2.163246        -1.808216
 H         2.080118        -1.131645         1.887986
