19
Iteration:  2400charge 0 multiplicity 1
 C        -0.038161         0.290077        -0.237829
 C         1.390597         0.166740         0.037398
 C         2.309245         1.342308        -0.060684
 C         3.416193         0.426997         0.533383
 O         4.481920         0.779644         1.339540
 C         3.641441        -0.490061        -0.671419
 C         2.271594        -1.081818        -0.424150
 O         1.769754        -2.353377        -0.798414
 C         2.194390        -0.600023         1.031454
 H        -0.444010         1.208709         0.360911
 H        -0.119123         0.586122        -1.293762
 H        -0.610636        -0.657836        -0.064183
 H         2.633870         1.849600        -1.017483
 H         2.207120         2.142465         0.845496
 H         4.871141         1.495937         0.815171
 H         3.906298         0.019936        -1.583264
 H         4.329105        -1.299270        -0.414984
 H         1.298252        -2.250848        -1.627866
 H         1.990294        -1.149254         1.955253
