19
Iteration:   715charge 0 multiplicity 1
 C        -0.054862         0.126181        -0.043026
 C         1.437866         0.192095         0.057825
 C         2.303340         1.356197        -0.009726
 C         3.445913         0.483361         0.456978
 O         4.388312         0.796329         1.442159
 C         3.698544        -0.499901        -0.852462
 C         2.304976        -1.043888        -0.415765
 O         1.585799        -2.187549        -1.005468
 C         2.398674        -0.554483         1.000280
 H        -0.522007         0.874209         0.687024
 H        -0.440003         0.295306        -1.089238
 H        -0.417531        -0.843090         0.310357
 H         2.447189         1.818524        -1.036358
 H         2.032996         2.177169         0.572083
 H         4.599797        -0.057686         1.765746
 H         3.727166        -0.077279        -1.915093
 H         4.507039        -1.272448        -0.816166
 H         2.128863        -2.952771        -0.700688
 H         2.244153        -0.977114         2.022786
