19
Iteration:  2913
 C        -0.009630         0.178072        -0.213862
 C         1.478414         0.147475         0.084320
 C         2.349239         1.356106        -0.019833
 C         3.411042         0.420247         0.586333
 O         4.582786         0.881792         1.180450
 C         3.668981        -0.604560        -0.527686
 C         2.241561        -1.140978        -0.381097
 O         1.627887        -2.218260        -1.022575
 C         2.157760        -0.574374         1.143470
 H        -0.592419         0.942619         0.386344
 H        -0.111011         0.255323        -1.357805
 H        -0.323635        -0.845190         0.048270
 H         2.659216         1.715730        -1.057900
 H         2.107385         2.129173         0.655720
 H         4.174771         1.663664         1.473231
 H         3.930640        -0.350431        -1.590811
 H         4.371965        -1.381027        -0.138862
 H         1.366987        -1.943947        -1.939313
 H         1.793845        -0.762599         2.056893
