19
Iteration:  2994charge 0 multiplicity 1
 C        -0.060385         0.266404        -0.166989
 C         1.395426         0.164511        -0.137064
 C         2.409633         1.414396        -0.067707
 C         3.368767         0.423477         0.509404
 O         4.458283         0.711365         1.388048
 C         3.649286        -0.508010        -0.814327
 C         2.238215        -1.085244        -0.356194
 O         1.745171        -2.329144        -0.699196
 C         2.305478        -0.497204         0.947699
 H        -0.449455         0.879535         0.666467
 H        -0.541834         0.709463        -1.121740
 H        -0.419980        -0.809501        -0.045937
 H         2.728911         1.929341        -1.004782
 H         2.290558         2.195904         0.713301
 H         4.024963         0.796643         2.213450
 H         3.757553         0.046134        -1.830601
 H         4.406657        -1.345010        -0.812376
 H         1.820881        -2.519793        -1.649406
 H         1.766176        -0.716907         1.997373
