19
Iteration:  2145charge 0 multiplicity 1
 C        -0.112262         0.150641        -0.215079
 C         1.452127         0.179492        -0.101437
 C         2.413797         1.380720        -0.055473
 C         3.428575         0.299589         0.517142
 O         4.460596         0.951166         1.360839
 C         3.835812        -0.738465        -0.573906
 C         2.295697        -1.172817        -0.365652
 O         1.511176        -2.032149        -0.963845
 C         2.262586        -0.611144         0.987005
 H        -0.618701         1.241509         0.148036
 H        -0.414906         0.015811        -1.335511
 H        -0.606859        -0.703257         0.251270
 H         2.805931         1.747904        -0.969344
 H         2.283922         2.071173         0.831077
 H         4.393832         1.966656         1.551397
 H         4.167728        -0.354245        -1.573123
 H         4.523632        -1.313717        -0.010823
 H         1.422816        -2.878782        -0.507820
 H         1.888334        -0.922150         2.063325
