19
Iteration:  1228charge 0 multiplicity 1
 C        -0.110786         0.091839        -0.114251
 C         1.400528         0.176722        -0.110362
 C         2.344490         1.391209         0.005650
 C         3.426874         0.370076         0.506921
 O         4.507659         0.798468         1.320151
 C         3.736100        -0.594223        -0.639205
 C         2.277390        -1.021493        -0.412678
 O         1.663895        -2.220650        -0.838059
 C         2.222596        -0.525062         0.968818
 H        -0.422488         0.538721         0.826840
 H        -0.579244         0.600424        -0.883695
 H        -0.344868        -1.015966        -0.081726
 H         2.567696         2.117271        -0.935013
 H         2.050014         2.135001         0.880178
 H         4.761407         1.671209         1.086102
 H         4.005320        -0.310406        -1.655423
 H         4.514073        -1.311143        -0.389859
 H         1.459498        -2.118221        -1.805476
 H         1.989362        -0.798965         1.909277
