19
Iteration:  4723
 C        -0.061958         0.129597        -0.268180
 C         1.420966         0.191413         0.037694
 C         2.343117         1.423571         0.001965
 C         3.478655         0.380752         0.541066
 O         4.576173         0.813792         1.288882
 C         3.666348        -0.490302        -0.651190
 C         2.256771        -1.074083        -0.353107
 O         1.668297        -2.251063        -0.925386
 C         2.208291        -0.667606         1.106001
 H        -0.797940         0.807648         0.250968
 H        -0.294623         0.323912        -1.345156
 H        -0.453663        -0.849227        -0.059130
 H         2.593823         1.956009        -0.928327
 H         1.927053         2.178306         0.634254
 H         4.284090         1.629038         1.789201
 H         3.923763         0.165436        -1.542484
 H         4.362106        -1.289988        -0.582928
 H         1.272405        -2.026248        -1.788828
 H         1.847610        -1.198387         1.911453
