19
Iteration:   773
 C        -0.088372         0.127961         0.002971
 C         1.422394         0.137393        -0.027247
 C         2.324946         1.356546         0.089056
 C         3.479585         0.357981         0.615730
 O         4.549451         1.070172         1.207907
 C         3.671593        -0.606511        -0.614941
 C         2.223280        -1.084522        -0.439994
 O         1.692475        -2.182081        -1.206172
 C         2.133653        -0.654920         1.085798
 H        -0.335524         0.809410         0.814548
 H        -0.465025         0.749943        -0.844166
 H        -0.723113        -0.818262         0.053667
 H         2.483391         2.027471        -0.750900
 H         2.098053         1.738214         1.121809
 H         5.418445         0.510890         1.230846
 H         3.898279        -0.091068        -1.596316
 H         4.255513        -1.483533        -0.474907
 H         2.267002        -2.942829        -0.976869
 H         1.537144        -0.877131         1.963116
