19
Iteration:  4812charge 0 multiplicity 1
 C        -0.110002         0.471140        -0.079268
 C         1.405271         0.087337         0.010741
 C         2.325118         1.287662         0.009760
 C         3.404710         0.330032         0.550386
 O         4.406504         0.915921         1.336320
 C         3.669575        -0.593890        -0.648364
 C         2.303083        -1.090753        -0.464750
 O         1.861863        -2.319880        -0.940385
 C         2.244257        -0.698571         0.959118
 H        -0.334197         0.938188         0.884745
 H        -0.262637         1.133758        -0.940538
 H        -0.777610        -0.413148        -0.358610
 H         2.550535         1.688241        -0.979603
 H         2.015897         2.096783         0.693759
 H         4.058457         1.819463         1.513114
 H         3.993662        -0.015761        -1.659793
 H         4.389547        -1.432601        -0.488621
 H         1.642603        -2.293411        -1.893010
 H         1.845287        -1.157584         1.965723
