19
Iteration:  2209charge 0 multiplicity 1
 C        -0.124159         0.283332        -0.329543
 C         1.350766         0.193429        -0.119855
 C         2.340283         1.361267        -0.052320
 C         3.395388         0.416855         0.495348
 O         4.496321         0.677288         1.370395
 C         3.688653        -0.620792        -0.652928
 C         2.321299        -1.075396        -0.308765
 O         1.743597        -2.226378        -0.792811
 C         2.164270        -0.457350         1.093696
 H        -0.582610         1.004746         0.286173
 H        -0.379689         0.806824        -1.302418
 H        -0.531131        -0.711876        -0.330542
 H         2.448018         1.967274        -0.989156
 H         2.007001         2.060864         0.830509
 H         5.097595         1.074521         0.664067
 H         3.905873        -0.078883        -1.569226
 H         4.539961        -1.213270        -0.328717
 H         2.391947        -2.960191        -0.951614
 H         1.933462        -0.957151         2.070824
