19
Iteration:  3097
 C        -0.021313         0.172940        -0.223959
 C         1.438091         0.201109         0.057528
 C         2.459729         1.309543        -0.141082
 C         3.431445         0.384049         0.569583
 O         4.447635         0.879538         1.277995
 C         3.753426        -0.633611        -0.566935
 C         2.279305        -1.086164        -0.387952
 O         1.556614        -2.224094        -0.937171
 C         2.279863        -0.538056         1.051918
 H        -0.644449         1.046941         0.297382
 H        -0.296077         0.264181        -1.277610
 H        -0.465996        -0.729919         0.205163
 H         2.376873         1.578478        -1.167272
 H         2.118181         2.275695         0.541782
 H         4.046677         1.654821         1.790055
 H         4.202709        -0.319815        -1.551579
 H         4.338279        -1.435183        -0.016647
 H         0.799560        -1.875347        -1.477604
 H         2.327583        -1.239691         2.012389
