19
Iteration:  4220charge 0 multiplicity 1
 C        -0.136783         0.183625        -0.271374
 C         1.373218         0.196296        -0.173470
 C         2.410405         1.448673        -0.116667
 C         3.488701         0.390956         0.579593
 O         4.528667         0.783133         1.400226
 C         3.684861        -0.634890        -0.641069
 C         2.189519        -0.980838        -0.400300
 O         1.733837        -2.293825        -0.803703
 C         2.171300        -0.460964         0.992096
 H        -0.511912         0.756606         0.603915
 H        -0.428250         0.838516        -1.131421
 H        -0.485565        -0.814549        -0.320099
 H         2.662318         2.149712        -0.945794
 H         1.755079         2.103538         0.568871
 H         5.232611         0.187407         1.176022
 H         3.948877        -0.215627        -1.590556
 H         4.315224        -1.452379        -0.488277
 H         1.461551        -2.771550         0.021424
 H         1.989085        -0.892990         2.053923
