19
Iteration:   697
 C        -0.074098         0.035319        -0.091047
 C         1.429201         0.128846        -0.025552
 C         2.437196         1.584672        -0.015901
 C         3.415583         0.392690         0.584940
 O         4.534401         0.823349         1.374152
 C         3.546356        -0.442181        -0.791312
 C         2.211225        -1.105736        -0.468494
 O         1.624660        -2.210356        -0.931865
 C         2.285278        -0.597105         0.987946
 H        -0.652008         0.700667         0.471646
 H        -0.365383         0.407052        -1.051791
 H        -0.402540        -1.003882         0.161044
 H         2.720186         2.152816        -0.907660
 H         2.046383         2.238145         0.835972
 H         4.987758         0.114408         1.791973
 H         3.720721         0.121016        -1.689969
 H         4.421519        -1.017560        -0.667054
 H         2.178668        -3.026607        -0.933458
 H         2.097282        -1.016717         1.862057
