19
Iteration:  3381
 C        -0.029120         0.069120        -0.280418
 C         1.365925         0.181034         0.041749
 C         2.405846         1.398066        -0.052603
 C         3.443218         0.439951         0.530203
 O         4.633563         0.793040         1.206113
 C         3.621089        -0.621403        -0.562532
 C         2.233537        -1.100524        -0.268721
 O         1.643188        -2.212126        -0.994962
 C         2.168649        -0.455150         1.138088
 H        -0.645054         0.937695         0.190806
 H        -0.240138         0.144700        -1.352535
 H        -0.278553        -0.928815         0.160273
 H         2.842353         1.922739        -0.946185
 H         2.190486         2.152676         0.607645
 H         4.422646         1.420888         1.973379
 H         3.867767        -0.361569        -1.581956
 H         4.405066        -1.250144        -0.116934
 H         1.022470        -1.945215        -1.724358
 H         1.793074        -0.896666         1.979968
