19
Iteration:  3497charge 0 multiplicity 1
 C        -0.177160         0.323415        -0.206257
 C         1.364683         0.176595        -0.026399
 C         2.397146         1.395603        -0.051325
 C         3.372649         0.421086         0.523525
 O         4.588616         0.768570         1.217324
 C         3.723629        -0.591669        -0.564338
 C         2.204437        -1.110040        -0.405482
 O         1.816004        -2.340674        -0.867991
 C         2.202617        -0.535136         1.021984
 H        -0.608717         1.015801         0.421475
 H        -0.638790         0.599127        -1.144632
 H        -0.452581        -0.611364         0.214995
 H         2.658975         1.825602        -1.066254
 H         2.173711         2.229055         0.677207
 H         4.239510         1.329703         1.956736
 H         4.309063        -0.210094        -1.418498
 H         4.261605        -1.451868        -0.104133
 H         1.001256        -2.099666        -1.374849
 H         1.849933        -1.012042         1.862004
