19
Iteration:  1179
 C        -0.143503         0.455866        -0.310886
 C         1.365013         0.017651         0.123667
 C         2.252942         1.262939         0.074284
 C         3.455359         0.397460         0.471092
 O         4.450273         0.878202         1.359501
 C         3.643943        -0.511092        -0.817334
 C         2.292282        -1.138100        -0.341848
 O         1.740274        -2.348139        -0.818040
 C         2.417435        -0.614944         1.053121
 H        -0.596213         1.285607         0.285685
 H         0.044744         0.736098        -1.429753
 H        -0.855155        -0.351255        -0.292956
 H         2.101688         1.824191        -0.828066
 H         1.902290         1.880242         0.855145
 H         5.125742         1.518868         0.945109
 H         3.866660         0.052154        -1.751462
 H         4.540244        -1.159023        -0.830574
 H         1.225626        -2.016556        -1.556516
 H         2.507170        -1.274523         2.049732
