19
Iteration:  2359
 C        -0.060852         0.249101        -0.264297
 C         1.350497         0.157412        -0.044090
 C         2.404921         1.398943         0.089985
 C         3.473760         0.375591         0.431960
 O         4.472551         0.813305         1.396918
 C         3.699676        -0.524506        -0.727762
 C         2.216113        -1.106140        -0.427364
 O         1.617605        -2.320822        -0.773572
 C         2.302281        -0.540102         0.976078
 H        -0.450754         1.181390         0.100508
 H        -0.124841         0.019876        -1.279857
 H        -0.796896        -0.469637         0.216151
 H         2.379997         1.991418        -0.811105
 H         2.064342         1.938725         0.887561
 H         4.575741         1.845651         1.470757
 H         3.957568        -0.094754        -1.677456
 H         4.462890        -1.334980        -0.450890
 H         2.002751        -2.649381        -1.622825
 H         2.159064        -1.010454         1.906487
