19
Iteration:  2950charge 0 multiplicity 1
 C        -0.148021         0.202215        -0.122257
 C         1.365155         0.161934        -0.072870
 C         2.392273         1.268876        -0.047551
 C         3.461304         0.354899         0.492469
 O         4.510750         0.919743         1.283464
 C         3.754604        -0.685038        -0.575176
 C         2.288572        -0.991473        -0.440757
 O         1.695896        -2.171072        -0.883440
 C         2.254320        -0.545696         0.976584
 H        -0.514893         1.016253         0.497548
 H        -0.580389         0.367912        -1.174862
 H        -0.689077        -0.711679         0.296773
 H         2.684088         1.709811        -1.045359
 H         1.844052         2.065664         0.504222
 H         4.287495         0.821254         2.179605
 H         4.202943        -0.476035        -1.624978
 H         4.320045        -1.413146         0.061504
 H         1.075354        -2.151830        -1.621500
 H         1.967909        -0.962435         2.114833
