19
Iteration:  1270
 C        -0.046939         0.022997        -0.025130
 C         1.393996         0.288763        -0.035112
 C         2.348692         1.389390        -0.216736
 C         3.397905         0.396995         0.527316
 O         4.560393         0.723688         1.241350
 C         3.634516        -0.634586        -0.582534
 C         2.222703        -0.989368        -0.369125
 O         1.774093        -2.123422        -0.939445
 C         2.168975        -0.498284         1.095672
 H        -0.523420         0.510046         0.842396
 H        -0.587079         0.221412        -0.929806
 H        -0.269130        -1.045941         0.226258
 H         2.541668         1.679985        -1.208592
 H         2.043132         2.339982         0.237800
 H         4.241583         1.014468         2.118060
 H         4.121348        -0.183532        -1.460716
 H         4.230870        -1.529780        -0.360804
 H         1.823632        -2.099279        -1.931017
 H         1.905111        -0.790548         2.020194
