19
Iteration:  2180
 C        -0.010631         0.093396        -0.355345
 C         1.397170         0.221575        -0.012483
 C         2.415786         1.373990        -0.097704
 C         3.378038         0.408473         0.554374
 O         4.568027         0.736260         1.387437
 C         3.584318        -0.617080        -0.590343
 C         2.212157        -1.039913        -0.381797
 O         1.592021        -2.179438        -0.913155
 C         2.259114        -0.472743         1.143538
 H        -0.667124         1.035468         0.131807
 H        -0.061286         0.157716        -1.462216
 H        -0.357201        -0.843723         0.054523
 H         2.500392         1.774961        -1.100555
 H         2.146332         2.230333         0.456664
 H         4.842766         1.716506         1.159625
 H         3.984966        -0.179755        -1.561778
 H         4.328124        -1.314811        -0.242941
 H         2.216953        -2.876348        -1.077437
 H         1.979239        -0.796138         2.057957
