19
Iteration:  3794
 C        -0.112373         0.245962        -0.206455
 C         1.388108         0.129354        -0.124265
 C         2.363047         1.380057        -0.092800
 C         3.419553         0.493923         0.561558
 O         4.558557         0.795803         1.385559
 C         3.783051        -0.706117        -0.691036
 C         2.271628        -1.052909        -0.523754
 O         1.675952        -2.303203        -0.786299
 C         2.218519        -0.456476         1.031340
 H        -0.611159         0.791559         0.587166
 H        -0.502646         0.522979        -1.198318
 H        -0.424425        -0.715520         0.132014
 H         2.863073         1.861345        -1.041024
 H         2.041495         2.130770         0.590991
 H         4.286684         1.529649         1.938894
 H         4.220089        -0.359317        -1.582607
 H         4.290916        -1.489565        -0.191125
 H         0.730614        -2.157439        -0.962736
 H         1.697602        -0.978413         1.800762
