19
Iteration:  2573
 C        -0.054377         0.122144        -0.214655
 C         1.433483         0.205105         0.022680
 C         2.373404         1.505105        -0.019647
 C         3.402565         0.398455         0.519898
 O         4.428636         0.822238         1.383234
 C         3.683389        -0.567096        -0.664007
 C         2.239047        -1.057516        -0.429822
 O         1.710731        -2.273426        -0.872140
 C         2.233153        -0.536590         1.042810
 H        -0.677628         0.965057         0.174730
 H        -0.193615         0.021878        -1.396681
 H        -0.382401        -0.834243         0.191877
 H         2.620517         1.951663        -1.053814
 H         2.201776         2.321777         0.670867
 H         5.259895         0.318451         1.152934
 H         3.877427        -0.197592        -1.742554
 H         4.445575        -1.306763        -0.415859
 H         1.025159        -2.299768        -1.595241
 H         2.174460        -1.123442         1.880629
