19
Iteration:   165
 C        -0.155460         0.094596        -0.103589
 C         1.368749         0.194097         0.135529
 C         2.349476         1.319254         0.020620
 C         3.476041         0.383095         0.509872
 O         4.577889         0.767200         1.305377
 C         3.661179        -0.474959        -0.809175
 C         2.286663        -1.022934        -0.414732
 O         1.652778        -2.183731        -0.900055
 C         2.364103        -0.573219         0.973561
 H        -0.818045         0.719457         0.505143
 H        -0.331789         0.100039        -1.166984
 H        -0.446098        -0.952024         0.152254
 H         2.404008         1.625029        -0.995023
 H         2.155016         2.115576         0.717133
 H         3.987138         1.441014         1.796925
 H         3.882384        -0.023524        -1.710019
 H         4.316190        -1.289127        -0.762989
 H         1.135994        -1.758750        -1.670209
 H         2.139429        -0.927212         2.026262
