19
Iteration:  3627
 C        -0.087845         0.430454        -0.135121
 C         1.395172         0.183400        -0.127883
 C         2.319755         1.353042        -0.135723
 C         3.392563         0.384084         0.579484
 O         4.526518         0.791164         1.236012
 C         3.631870        -0.608184        -0.585244
 C         2.258101        -1.104692        -0.406022
 O         1.904541        -2.383869        -0.843256
 C         2.179610        -0.541521         1.036287
 H        -0.246679         0.985350         0.805048
 H        -0.401149         1.048509        -1.092322
 H        -0.873437        -0.500740        -0.087067
 H         2.582798         1.952080        -1.127037
 H         1.907414         2.022933         0.649531
 H         4.273178         1.243242         2.125378
 H         3.878126        -0.216897        -1.577819
 H         4.358824        -1.405717        -0.303543
 H         1.002470        -2.153985        -1.186290
 H         1.878147        -1.232850         1.914534
