19
Iteration:    84charge 0 multiplicity 1
 C        -0.058315         0.192324        -0.005489
 C         1.388024         0.214824         0.123618
 C         2.282960         1.363279         0.004065
 C         3.395186         0.375689         0.527594
 O         4.529838         0.842442         1.255318
 C         3.640875        -0.560909        -0.726974
 C         2.227014        -1.054710        -0.397117
 O         1.827522        -2.193521        -1.087793
 C         2.220165        -0.643166         1.060126
 H        -0.634363         0.808586         0.704124
 H        -0.342971         0.714880        -0.970495
 H        -0.407013        -0.845698         0.018053
 H         2.377830         1.813851        -1.019461
 H         2.065888         2.303965         0.597884
 H         5.227515         1.006229         0.557124
 H         3.668793        -0.247399        -1.783217
 H         4.219098        -1.354171        -0.273254
 H         1.303608        -2.776936        -0.486758
 H         1.971544        -1.023348         2.061269
