19
Iteration:  1085
 C        -0.052951         0.169280         0.005312
 C         1.496250         0.159622         0.104988
 C         2.399116         1.366707        -0.131707
 C         3.407059         0.361023         0.461140
 O         4.280824         0.931499         1.378918
 C         3.756298        -0.551934        -0.653616
 C         2.335164        -1.147751        -0.391606
 O         1.569571        -2.178472        -0.995537
 C         2.329007        -0.614264         0.977641
 H        -0.570527         0.705000         0.844187
 H        -0.376057         0.517599        -0.962307
 H        -0.486893        -0.863471         0.130818
 H         2.609114         1.614408        -1.084117
 H         2.206725         2.338636         0.417430
 H         5.198123         0.831601         1.215138
 H         4.041414        -0.209363        -1.650234
 H         4.465227        -1.385768        -0.494417
 H         1.507207        -2.081671        -1.986300
 H         2.062572        -0.995879         2.094803
