19
Iteration:  1965
 C        -0.168542         0.330884        -0.182608
 C         1.383558         0.184857        -0.085989
 C         2.402923         1.339292        -0.132976
 C         3.388810         0.364730         0.570243
 O         4.604515         0.832830         1.292123
 C         3.650187        -0.729578        -0.542932
 C         2.206903        -1.108419        -0.348379
 O         1.901716        -2.204241        -1.035393
 C         2.136084        -0.521152         1.089438
 H        -0.519695         1.198890         0.338065
 H        -0.706208         0.264873        -1.194819
 H        -0.800220        -0.372253         0.517996
 H         2.753075         1.817845        -1.023792
 H         2.111854         2.105025         0.600914
 H         4.441080         1.530239         1.922270
 H         3.938221        -0.483319        -1.546468
 H         4.228314        -1.641054        -0.309726
 H         0.983500        -2.370654        -0.825608
 H         1.800660        -1.008524         2.120366
