19
Iteration:  2029
 C        -0.108413         0.208900        -0.399594
 C         1.381296         0.144734        -0.037980
 C         2.471434         1.299174         0.028929
 C         3.477647         0.368661         0.559503
 O         4.547431         0.855824         1.317321
 C         3.722322        -0.624157        -0.689054
 C         2.304945        -1.071355        -0.395615
 O         1.573244        -2.223998        -0.747237
 C         2.186297        -0.521285         1.033602
 H        -0.640117         0.370859         0.483539
 H        -0.312371         0.871781        -1.253735
 H        -0.336397        -0.841119        -0.783408
 H         2.642481         1.944549        -0.945370
 H         2.276594         1.910746         0.919708
 H         4.207071         1.725552         1.738362
 H         4.020244        -0.021523        -1.557473
 H         4.409990        -1.437269        -0.409903
 H         1.032866        -1.969324        -1.506201
 H         1.859602        -0.897960         2.121352
