19
Iteration:  4030
 C        -0.166402         0.360203        -0.257333
 C         1.441948         0.107406        -0.037442
 C         2.363224         1.334222        -0.095484
 C         3.483184         0.378867         0.541787
 O         4.439065         0.869870         1.385984
 C         3.746767        -0.701331        -0.665746
 C         2.261379        -1.157707        -0.375926
 O         1.705939        -2.266565        -0.856355
 C         2.285702        -0.533980         1.048254
 H        -0.726920         1.059122         0.357618
 H        -0.266136         0.792395        -1.264275
 H        -0.948330        -0.524354        -0.305602
 H         2.716097         1.785554        -1.081219
 H         2.156947         2.141548         0.723858
 H         4.653575         1.794255         1.180057
 H         4.075163        -0.157334        -1.519274
 H         4.485330        -1.436912        -0.366829
 H         0.793130        -2.300372        -1.129593
 H         2.069953        -0.842402         2.159371
