19
Iteration:   660charge 0 multiplicity 1
 C        -0.138889         0.122995        -0.204941
 C         1.345657         0.101737         0.061891
 C         2.273885         1.449310         0.171856
 C         3.404547         0.381467         0.513493
 O         4.565267         0.905751         1.140121
 C         3.716528        -0.627400        -0.597037
 C         2.287126        -1.023405        -0.393246
 O         1.692927        -2.100512        -1.008829
 C         2.234318        -0.612159         1.027981
 H        -0.659595         0.730495         0.615262
 H        -0.235866         0.665167        -1.189290
 H        -0.609391        -0.823638        -0.364383
 H         2.381232         2.234047        -0.661135
 H         1.925840         1.854834         1.069609
 H         5.261550         0.218382         1.015795
 H         4.025695        -0.203856        -1.587291
 H         4.289373        -1.497143        -0.231984
 H         2.179923        -2.909436        -0.676642
 H         2.140378        -1.220709         2.059870
