19
Iteration:  2933
 C        -0.137594         0.174696        -0.170271
 C         1.412676         0.168635        -0.009586
 C         2.411465         1.363658        -0.081932
 C         3.442744         0.379380         0.578969
 O         4.544227         0.978713         1.202749
 C         3.731083        -0.732432        -0.535334
 C         2.219557        -1.107519        -0.373544
 O         1.678841        -2.207966        -1.008731
 C         2.194312        -0.566429         1.103369
 H        -0.565639         0.977691         0.485229
 H        -0.402233         0.234330        -1.195134
 H        -0.580894        -0.719967         0.213354
 H         2.667515         1.824307        -1.019681
 H         2.347508         2.114273         0.725018
 H         4.379682         1.244378         2.106574
 H         4.063080        -0.294353        -1.441399
 H         4.312901        -1.577865        -0.194296
 H         1.235610        -1.694048        -1.690319
 H         1.998997        -1.171865         1.878977
