19
Iteration:  3185charge 0 multiplicity 1
 C        -0.185918         0.360261        -0.322348
 C         1.343381         0.093494        -0.013560
 C         2.346425         1.319550        -0.059419
 C         3.446473         0.352220         0.513386
 O         4.575367         0.785179         1.252281
 C         3.691130        -0.552306        -0.670806
 C         2.297099        -1.049991        -0.363483
 O         1.718199        -2.287820        -0.749904
 C         2.237132        -0.503768         1.079857
 H        -0.478901         1.034134         0.546173
 H        -0.070172         0.874255        -1.234976
 H        -0.909849        -0.448541        -0.479279
 H         2.397582         1.861493        -0.934118
 H         2.117845         1.965386         0.822448
 H         4.270089         1.431045         1.999924
 H         3.871812        -0.199711        -1.712092
 H         4.157169        -1.487033        -0.300084
 H         2.101204        -2.579308        -1.614056
 H         2.054692        -1.220428         2.026987
