19
Iteration:   550
 C        -0.115260         0.098916        -0.044997
 C         1.361216         0.210169        -0.075992
 C         2.362563         1.395024        -0.066830
 C         3.389301         0.372550         0.511479
 O         4.547902         0.727882         1.282793
 C         3.650440        -0.538330        -0.716638
 C         2.283954        -1.008222        -0.419395
 O         1.738682        -2.134759        -0.919114
 C         2.206426        -0.494949         1.049501
 H        -0.516007         0.837984         0.671316
 H        -0.534979         0.017286        -1.027415
 H        -0.446523        -0.837991         0.321168
 H         2.567742         1.957552        -1.008242
 H         2.112763         2.187299         0.554666
 H         4.577893         0.068396         2.012866
 H         3.532569         0.060245        -1.633351
 H         4.476632        -1.154345        -0.748942
 H         2.462948        -2.733189        -0.781418
 H         1.831123        -0.879083         2.086061
