19
Iteration:  3873charge 0 multiplicity 1
 C        -0.154925         0.285992        -0.264626
 C         1.403065         0.131639        -0.057055
 C         2.371270         1.351537         0.028909
 C         3.461508         0.361705         0.574347
 O         4.520223         0.867648         1.155118
 C         3.720989        -0.644700        -0.496130
 C         2.292757        -1.105097        -0.432750
 O         1.724113        -2.239424        -0.855724
 C         2.171439        -0.583196         1.054569
 H        -0.504036         1.214587         0.291783
 H        -0.401526         0.551738        -1.327416
 H        -0.704775        -0.566078        -0.003705
 H         2.717836         1.819014        -0.984818
 H         2.313728         2.203216         0.697553
 H         4.225556         1.604353         1.635609
 H         4.214336        -0.451563        -1.402197
 H         4.395522        -1.397297        -0.058263
 H         1.008333        -2.097246        -1.489558
 H         1.950962        -1.086310         2.080793
