19
Iteration:  2831charge 0 multiplicity 1
 C        -0.121309         0.266441        -0.140509
 C         1.393851         0.147020        -0.091772
 C         2.351717         1.377425        -0.092834
 C         3.427894         0.402560         0.489110
 O         4.366789         0.726654         1.457854
 C         3.751946        -0.541686        -0.764848
 C         2.301959        -1.086219        -0.417219
 O         1.751083        -2.317105        -0.717758
 C         2.274270        -0.508132         0.945484
 H        -0.497718         0.902088         0.721160
 H        -0.449704         0.954533        -0.891282
 H        -0.815199        -0.599585        -0.174231
 H         2.621495         1.983095        -0.911805
 H         1.949417         2.151902         0.670340
 H         5.160293         1.095740         1.026446
 H         3.726595        -0.088760        -1.757310
 H         4.614934        -1.184962        -0.848877
 H         1.637517        -2.156115        -1.697707
 H         1.914614        -0.884980         2.025578
