19
Iteration:  3774charge 0 multiplicity 1
 C        -0.011624         0.288362        -0.262587
 C         1.434313         0.207484        -0.109812
 C         2.376645         1.392099        -0.063250
 C         3.416066         0.385790         0.528203
 O         4.499085         0.775475         1.294609
 C         3.679904        -0.556343        -0.600243
 C         2.233583        -1.087636        -0.409160
 O         1.721533        -2.353681        -0.720010
 C         2.216086        -0.584574         0.949687
 H        -0.334684         1.254811         0.299590
 H        -0.272742         0.566480        -1.329561
 H        -0.617291        -0.445404         0.209630
 H         2.518695         2.011594        -0.996680
 H         1.958447         2.016583         0.700389
 H         4.065326         1.354286         1.893845
 H         3.863055        -0.073894        -1.568952
 H         4.494089        -1.254427        -0.338918
 H         0.938790        -2.259196        -1.279435
 H         2.038917        -1.046577         1.943130
