19
Iteration:  2521
 C        -0.087646         0.359190        -0.217054
 C         1.385083         0.179082        -0.022243
 C         2.282602         1.427891         0.070019
 C         3.358784         0.481504         0.525125
 O         4.538747         0.836499         1.242413
 C         3.694299        -0.483995        -0.631563
 C         2.254026        -1.109947        -0.435112
 O         1.722474        -2.399181        -0.821803
 C         2.290434        -0.653078         0.934643
 H        -0.563184         1.122271         0.408688
 H        -0.266293         0.349429        -1.225302
 H        -0.535551        -0.609080         0.137781
 H         2.384186         1.942126        -0.832493
 H         2.079330         2.064637         0.978629
 H         4.365645         0.254829         1.965416
 H         4.037061        -0.104684        -1.583237
 H         4.375715        -1.297409        -0.291857
 H         2.097355        -2.600256        -1.721725
 H         2.028476        -1.096538         1.865749
