19
Iteration:  2945charge 0 multiplicity 1
 C        -0.176798         0.193775        -0.132433
 C         1.369643         0.132924        -0.051621
 C         2.417292         1.294832        -0.058061
 C         3.435040         0.335336         0.529509
 O         4.543334         0.959420         1.247676
 C         3.715325        -0.697185        -0.553543
 C         2.331308        -1.023524        -0.418354
 O         1.687333        -2.149378        -0.930800
 C         2.237186        -0.545969         1.029187
 H        -0.603862         1.091421         0.390010
 H        -0.588419         0.388451        -1.123786
 H        -0.566265        -0.744231         0.243855
 H         2.741135         1.760248        -1.012758
 H         1.976269         2.065685         0.572343
 H         4.165056         0.876154         2.219023
 H         4.126608        -0.593992        -1.523455
 H         4.314558        -1.475304        -0.057289
 H         1.064111        -2.201293        -1.671790
 H         2.054285        -0.975557         1.871835
