19
Iteration:  1052charge 0 multiplicity 1
 C        -0.104146         0.341541        -0.089463
 C         1.347137         0.076037         0.005592
 C         2.278181         1.294045         0.090604
 C         3.474800         0.328231         0.549595
 O         4.484212         1.038583         1.270083
 C         3.675302        -0.566040        -0.675259
 C         2.243748        -1.073800        -0.531667
 O         1.844659        -2.294986        -0.967096
 C         2.237278        -0.627049         1.023635
 H        -0.308897         1.089658         0.749046
 H        -0.348228         0.863904        -1.022748
 H        -0.792294        -0.541881         0.012341
 H         2.529870         1.823299        -0.743381
 H         1.919007         1.911451         0.972113
 H         5.265671         0.498027         1.372164
 H         3.956135        -0.168804        -1.655727
 H         4.077994        -1.563169        -0.422756
 H         0.984069        -2.310074        -1.405991
 H         1.946862        -1.342472         1.935517
