19
Iteration:  3365charge 0 multiplicity 1
 C        -0.160005         0.129373        -0.265779
 C         1.421479         0.189202         0.004293
 C         2.387117         1.421073        -0.047317
 C         3.469911         0.366056         0.574690
 O         4.652602         0.798661         1.242759
 C         3.658081        -0.642911        -0.578176
 C         2.224195        -1.006076        -0.329671
 O         1.672797        -2.216900        -0.894240
 C         2.201431        -0.567906         1.063331
 H        -0.652389         1.036326        -0.045034
 H        -0.262542        -0.112104        -1.375125
 H        -0.722223        -0.730420         0.096352
 H         2.355753         1.777108        -1.059913
 H         1.947082         2.205056         0.717098
 H         4.444609         1.544906         1.778448
 H         3.844720        -0.101908        -1.555287
 H         4.305034        -1.528043        -0.453040
 H         1.454013        -1.944615        -1.822972
 H         1.976490        -0.697919         2.211376
