19
Iteration:  1638charge 0 multiplicity 1
 C        -0.092888         0.293973        -0.164907
 C         1.370967         0.140562        -0.060003
 C         2.374697         1.382708        -0.092088
 C         3.393007         0.421318         0.521006
 O         4.487338         0.664917         1.327252
 C         3.702188        -0.603977        -0.684659
 C         2.255135        -1.048798        -0.449538
 O         1.843013        -2.206015        -0.821985
 C         2.168641        -0.562037         1.048343
 H        -0.451722         0.959367         0.662529
 H        -0.288530         0.577214        -1.228424
 H        -0.690723        -0.617482        -0.049536
 H         2.760240         1.872313        -0.990650
 H         2.086242         2.179606         0.550639
 H         4.311823         1.563867         1.644894
 H         4.091601        -0.105232        -1.595146
 H         4.365365        -1.372148        -0.226822
 H         0.952431        -2.111384        -1.145310
 H         1.838228        -1.155483         1.994783
