19
Iteration:  4569
 C        -0.108520         0.322582        -0.346223
 C         1.374396         0.135539         0.030349
 C         2.384966         1.299558         0.078367
 C         3.439806         0.294630         0.528286
 O         4.530697         0.941148         1.142065
 C         3.693316        -0.580658        -0.661859
 C         2.285330        -1.134754        -0.297655
 O         1.694403        -2.204945        -0.866504
 C         2.238227        -0.693672         1.135075
 H        -0.782706         0.535635         0.533277
 H        -0.186439         1.151765        -1.126593
 H        -0.542371        -0.587385        -0.703739
 H         2.512177         1.753456        -0.958929
 H         1.985929         2.019632         0.882764
 H         4.108082         1.371555         1.984984
 H         3.963283        -0.099594        -1.532244
 H         4.491953        -1.218210        -0.409606
 H         1.594553        -2.033000        -1.811253
 H         1.883295        -0.970555         2.255440
