19
Iteration:  1743
 C        -0.083585         0.280578        -0.140317
 C         1.393045         0.252096        -0.159960
 C         2.414042         1.334511        -0.069568
 C         3.447867         0.362952         0.554454
 O         4.483328         0.773075         1.374987
 C         3.632052        -0.609656        -0.632346
 C         2.230534        -1.039439        -0.390356
 O         1.744685        -2.301970        -0.866907
 C         2.168045        -0.510718         1.014162
 H        -0.586607         1.123250         0.372723
 H        -0.622164         0.389628        -1.086027
 H        -0.453296        -0.717333         0.299238
 H         2.584512         2.045199        -0.884919
 H         2.097606         1.799553         0.943773
 H         5.126113         1.204428         0.849655
 H         4.119216        -0.217043        -1.564094
 H         4.321155        -1.389861        -0.233218
 H         1.846514        -2.238497        -1.832409
 H         1.805833        -0.957380         2.017441
