19
Iteration:  1397charge 0 multiplicity 1
 C        -0.103834         0.030389        -0.110967
 C         1.389745         0.187914        -0.092674
 C         2.391765         1.430530        -0.047085
 C         3.404657         0.391374         0.455565
 O         4.447095         0.772914         1.302927
 C         3.786442        -0.672703        -0.561816
 C         2.315585        -1.060648        -0.372209
 O         1.596981        -2.091844        -0.872629
 C         2.199432        -0.481819         0.990804
 H        -0.511072         0.471343         0.783681
 H        -0.684294         0.500177        -0.858471
 H        -0.251121        -0.979662        -0.136326
 H         2.700495         2.007859        -1.014922
 H         2.192772         1.997764         0.841601
 H         5.120240         1.331462         0.912645
 H         4.104727        -0.379073        -1.540899
 H         4.420154        -1.407113        -0.074008
 H         2.043339        -2.225359        -1.740839
 H         1.857103        -0.685436         1.924950
