19
Iteration:  4873charge 0 multiplicity 1
 C        -0.052763         0.050189        -0.170186
 C         1.404315         0.228264        -0.098187
 C         2.396909         1.445273        -0.015538
 C         3.448497         0.352517         0.560929
 O         4.549682         0.791762         1.304476
 C         3.675297        -0.557499        -0.607364
 C         2.276540        -1.049721        -0.443304
 O         1.728423        -2.201939        -0.886058
 C         2.119090        -0.502477         0.986212
 H        -0.710172         0.804613         0.338548
 H        -0.405334        -0.062658        -1.238791
 H        -0.247852        -0.881645         0.304345
 H         2.659088         2.097786        -0.910493
 H         2.059728         2.026311         0.873063
 H         4.099867         0.996741         2.222507
 H         3.869470        -0.032988        -1.481303
 H         4.343261        -1.357046        -0.407777
 H         1.126746        -1.946210        -1.609095
 H         1.863883        -1.250786         1.779532
