19
Iteration:  3320
 C        -0.068987         0.369495        -0.207960
 C         1.455678         0.227660        -0.046736
 C         2.280249         1.401735         0.007606
 C         3.381745         0.362258         0.512521
 O         4.523799         0.852669         1.330652
 C         3.720293        -0.613020        -0.706525
 C         2.254400        -1.132319        -0.490463
 O         1.683846        -2.363088        -0.735323
 C         2.300703        -0.613924         0.928439
 H        -0.287854         1.328315         0.146289
 H        -0.618638         0.136516        -1.154457
 H        -0.686735        -0.299478         0.471380
 H         2.631755         1.931319        -0.863808
 H         2.046282         2.008397         0.986403
 H         4.069615         1.392039         2.004001
 H         4.047471        -0.035508        -1.647623
 H         4.473009        -1.395739        -0.501688
 H         1.603683        -2.523891        -1.717447
 H         1.828901        -0.977771         1.909383
