19
Iteration:  3690charge 0 multiplicity 1
 C        -0.063715         0.102913        -0.225972
 C         1.461537         0.196797        -0.117480
 C         2.444851         1.310234        -0.071641
 C         3.461847         0.348751         0.530725
 O         4.516901         0.853157         1.260669
 C         3.713742        -0.649537        -0.560405
 C         2.262285        -1.033793        -0.320651
 O         1.563315        -2.120900        -0.968829
 C         2.228140        -0.513452         1.084869
 H        -0.516968         0.713853         0.525603
 H        -0.436581         0.358681        -1.190020
 H        -0.325895        -0.945484        -0.286229
 H         2.525081         1.961410        -0.936126
 H         2.058725         2.002516         0.800886
 H         4.150840         1.708987         1.700146
 H         4.103736        -0.301712        -1.545249
 H         4.402531        -1.470365        -0.271619
 H         1.248394        -2.741851        -0.263834
 H         1.720535        -0.714393         2.072574
