19
Iteration:  2301charge 0 multiplicity 1
 C        -0.109374         0.103098        -0.132284
 C         1.376041         0.185306        -0.031152
 C         2.368939         1.412574        -0.111892
 C         3.397161         0.425585         0.578342
 O         4.577744         0.874146         1.262003
 C         3.748903        -0.745580        -0.535366
 C         2.232167        -1.119397        -0.358851
 O         1.719406        -2.208499        -1.042983
 C         2.210598        -0.442257         1.080702
 H        -0.711319         0.887157         0.420767
 H        -0.333707         0.493006        -1.071260
 H        -0.315067        -0.931630        -0.015305
 H         2.443862         1.711462        -1.153153
 H         2.135514         2.351671         0.443251
 H         4.271055         1.066830         2.111987
 H         4.177206        -0.436833        -1.486308
 H         4.353967        -1.509066        -0.119960
 H         0.936828        -1.979847        -1.575382
 H         1.915774        -0.707962         2.181026
