19
Iteration:   241
 C        -0.066327         0.300029         0.022859
 C         1.383443         0.188330         0.064838
 C         2.335466         1.277685        -0.000021
 C         3.411229         0.355631         0.533057
 O         4.427297         0.886673         1.352001
 C         3.603862        -0.569636        -0.723134
 C         2.195541        -1.045693        -0.432447
 O         1.783281        -2.249297        -1.084863
 C         2.376237        -0.665478         0.958745
 H        -0.544171         0.853407         0.823574
 H        -0.310541         0.994364        -0.785135
 H        -0.472781        -0.715319        -0.196742
 H         2.501610         1.682197        -1.024614
 H         2.097872         2.168347         0.680935
 H         4.862132         1.533283         0.773245
 H         3.917464        -0.071960        -1.662585
 H         4.287909        -1.321973        -0.402134
 H         1.439704        -2.847373        -0.433018
 H         2.290187        -1.138089         1.980064
