19
Iteration:   282
 C        -0.104028         0.159997        -0.039384
 C         1.426946         0.137040        -0.068279
 C         2.306133         1.433199        -0.027020
 C         3.438862         0.458366         0.490642
 O         4.453305         0.737247         1.466698
 C         3.677830        -0.530743        -0.775679
 C         2.292761        -1.082861        -0.472476
 O         1.586303        -2.157538        -0.882868
 C         2.368086        -0.568860         0.907376
 H        -0.489564         0.649513         0.902865
 H        -0.728448         0.413868        -0.984912
 H        -0.256377        -0.939441         0.146559
 H         2.543396         2.061718        -0.927909
 H         1.971462         1.979244         0.935939
 H         5.110111         1.290659         1.037302
 H         3.834638        -0.163730        -1.920361
 H         4.510262        -1.289902        -0.601906
 H         2.072056        -3.019234        -0.892321
 H         2.224066        -0.899834         1.901661
