19
Iteration:  4588charge 0 multiplicity 1
 C        -0.037183         0.145426        -0.305344
 C         1.373470         0.137628         0.041639
 C         2.353005         1.369532         0.026573
 C         3.447945         0.451032         0.612486
 O         4.604881         0.895863         1.241310
 C         3.691325        -0.617841        -0.571871
 C         2.221039        -1.024458        -0.438120
 O         1.574511        -2.247253        -0.850873
 C         2.249439        -0.590515         0.987778
 H        -0.659479         0.308893         0.560017
 H        -0.088317         0.984124        -1.004535
 H        -0.268688        -0.857215        -0.724324
 H         2.524324         1.915493        -0.951119
 H         2.079507         2.086732         0.762248
 H         4.469931         1.620978         1.978088
 H         4.024890        -0.300999        -1.597758
 H         4.294322        -1.527948        -0.375371
 H         1.309935        -2.185516        -1.775302
 H         2.167901        -1.442698         1.767608
