19
Iteration:  2071
 C        -0.095143         0.301904        -0.234222
 C         1.370623         0.192623        -0.108136
 C         2.338892         1.448720        -0.072347
 C         3.388001         0.413192         0.516702
 O         4.552908         0.612327         1.294160
 C         3.693373        -0.579067        -0.621517
 C         2.233721        -1.032973        -0.372352
 O         1.779126        -2.334752        -0.777477
 C         2.152891        -0.421624         0.995620
 H        -0.615284         0.832157         0.553628
 H        -0.267615         0.982736        -1.023916
 H        -0.534299        -0.590928        -0.481608
 H         2.679515         1.909018        -1.046709
 H         1.742039         2.023599         0.583777
 H         4.396698         1.100529         2.091558
 H         3.920477        -0.184951        -1.669235
 H         4.313638        -1.378598        -0.243953
 H         2.482410        -2.813292        -1.233791
 H         1.895797        -0.774574         2.077622
