19
Iteration:   349
 C        -0.090913         0.211250        -0.181925
 C         1.344955         0.079961         0.218476
 C         2.260256         1.249838        -0.009204
 C         3.408557         0.396093         0.550846
 O         4.581717         0.856647         1.280294
 C         3.665584        -0.580664        -0.639392
 C         2.269369        -1.029701        -0.454408
 O         1.605413        -2.094717        -1.080712
 C         2.346214        -0.555683         1.117525
 H        -0.573744         1.055992         0.376266
 H        -0.149845         0.209279        -1.334167
 H        -0.748339        -0.653672         0.171486
 H         2.276034         1.578994        -1.075298
 H         1.825001         2.058640         0.732905
 H         5.251594         1.295614         0.671467
 H         4.151029        -0.127069        -1.651749
 H         4.367182        -1.387687        -0.323749
 H         2.051273        -2.976228        -1.047538
 H         2.413556        -1.062667         2.184971
