19
Iteration:  4742charge 0 multiplicity 1
 C        -0.093706        -0.032586        -0.309035
 C         1.345866         0.180143         0.012528
 C         2.367427         1.319513         0.022731
 C         3.414055         0.424645         0.582318
 O         4.535516         0.675066         1.307014
 C         3.640245        -0.561910        -0.707890
 C         2.343408        -0.992746        -0.369200
 O         1.682236        -2.067417        -0.843357
 C         2.249328        -0.477211         1.068531
 H        -0.642259         0.461196         0.515234
 H        -0.427136         0.438566        -1.269907
 H        -0.386016        -1.023300        -0.430111
 H         2.465182         1.753781        -1.026281
 H         2.145911         2.115271         0.719051
 H         4.543273         1.583942         1.572075
 H         3.888439         0.049825        -1.756348
 H         4.517338        -1.194760        -0.451666
 H         1.372307        -1.925816        -1.769172
 H         2.154674        -0.876133         2.007857
