19
Iteration:  4001charge 0 multiplicity 1
 C         0.045931         0.279016        -0.203619
 C         1.486597         0.134389        -0.030549
 C         2.389275         1.347293        -0.110652
 C         3.421626         0.428223         0.559113
 O         4.482091         0.944172         1.226090
 C         3.683589        -0.724990        -0.505346
 C         2.264979        -1.160888        -0.352727
 O         1.618007        -2.199326        -0.906226
 C         2.162642        -0.639269         1.108687
 H        -0.422894         0.815005         0.633693
 H        -0.130436         0.791525        -1.177317
 H        -0.490985        -0.666872        -0.366099
 H         2.626598         1.615136        -1.107676
 H         2.043948         2.193476         0.497898
 H         4.278771         1.947978         1.416819
 H         4.093175        -0.207482        -1.443746
 H         4.353969        -1.471971        -0.072458
 H         1.229762        -2.174417        -1.806344
 H         1.676963        -1.301117         1.853201
