19
Iteration:  3554charge 0 multiplicity 1
 C        -0.019358         0.080991        -0.276646
 C         1.407964         0.157175         0.046789
 C         2.432898         1.422627        -0.045605
 C         3.420658         0.410106         0.521191
 O         4.566668         0.851621         1.313534
 C         3.732753        -0.618949        -0.597851
 C         2.262266        -1.140745        -0.415614
 O         1.420108        -2.187651        -0.845951
 C         2.299735        -0.473511         1.043816
 H        -0.599486         0.845304         0.212335
 H        -0.041184         0.044906        -1.339631
 H        -0.444539        -0.812525        -0.103383
 H         2.556457         1.822842        -1.025327
 H         2.078804         2.242246         0.679472
 H         4.254992         1.619172         1.776259
 H         3.905246        -0.022652        -1.519197
 H         4.560368        -1.359421        -0.526837
 H         1.700216        -2.397143        -1.743640
 H         2.106365        -1.230165         1.923202
