19
Iteration:  1444
 C        -0.073907         0.334474        -0.032799
 C         1.442854         0.172615        -0.003382
 C         2.419764         1.305864        -0.112280
 C         3.478500         0.290140         0.509717
 O         4.374438         0.931686         1.360784
 C         3.712029        -0.595465        -0.720693
 C         2.291943        -1.132070        -0.442764
 O         1.679090        -2.260805        -0.890244
 C         2.266169        -0.632876         1.024718
 H        -0.432615         1.176379         0.585483
 H        -0.461532         0.863318        -0.962679
 H        -0.669307        -0.590960         0.057642
 H         2.740783         1.475211        -1.206505
 H         2.098181         2.152272         0.533519
 H         3.816052         1.639522         1.851170
 H         3.917300        -0.141799        -1.698918
 H         4.439197        -1.382495        -0.454748
 H         1.551221        -2.217559        -1.834594
 H         2.013200        -1.198846         2.054201
