19
Iteration:   278charge 0 multiplicity 1
 C        -0.113420         0.179448        -0.021949
 C         1.388758         0.166979        -0.048298
 C         2.295625         1.378847        -0.017743
 C         3.415868         0.432673         0.492942
 O         4.444491         0.741842         1.472777
 C         3.714855        -0.527013        -0.812897
 C         2.320631        -1.103464        -0.474847
 O         1.608778        -2.130581        -0.882355
 C         2.369657        -0.552266         0.892567
 H        -0.478573         0.628210         0.889565
 H        -0.582989         0.448529        -0.942284
 H        -0.439160        -0.841588         0.108455
 H         2.483610         1.842467        -0.975003
 H         2.011647         2.021210         0.755231
 H         5.129684         1.324398         1.025076
 H         3.814406        -0.204445        -1.787193
 H         4.546011        -1.218483        -0.613967
 H         1.977099        -3.024956        -0.766335
 H         2.287192        -1.024706         1.863153
