19
Iteration:  4294
 C        -0.180901         0.272854        -0.232512
 C         1.401050         0.172209         0.028504
 C         2.375047         1.356561        -0.137580
 C         3.475589         0.375886         0.589689
 O         4.579639         1.014564         1.222712
 C         3.684628        -0.647559        -0.501948
 C         2.246978        -1.146446        -0.358798
 O         1.691595        -2.274360        -1.010730
 C         2.224805        -0.651395         1.106525
 H        -0.563054         1.206327         0.158066
 H        -0.322145         0.287231        -1.336115
 H        -0.728744        -0.628558         0.207276
 H         2.679172         1.706753        -1.103431
 H         2.286159         2.236731         0.515534
 H         4.687464         0.473954         2.107526
 H         4.156433        -0.269121        -1.477794
 H         4.261011        -1.567650        -0.037358
 H         0.941631        -1.840262        -1.430544
 H         1.854652        -0.804775         2.192032
