19
Iteration:  3915
 C        -0.141520         0.185185        -0.336140
 C         1.349771         0.151027        -0.091863
 C         2.449923         1.414140        -0.014273
 C         3.394112         0.391644         0.467365
 O         4.550405         0.722232         1.398104
 C         3.668778        -0.505235        -0.772719
 C         2.278920        -1.110713        -0.324719
 O         1.627469        -2.306406        -0.690976
 C         2.281194        -0.476567         0.978369
 H        -0.342723         1.159307         0.197448
 H        -0.320979         0.580484        -1.351280
 H        -0.758225        -0.531605         0.123044
 H         2.797938         2.058765        -0.984174
 H         2.060787         2.129204         0.681586
 H         4.238063         1.413824         2.007206
 H         3.756474         0.112783        -1.709729
 H         4.503106        -1.217561        -0.588334
 H         2.035083        -2.605387        -1.507358
 H         2.121752        -0.932037         2.072138
