19
Iteration:  4026charge 0 multiplicity 1
 C        -0.127509         0.355304        -0.249384
 C         1.413931         0.115181        -0.027797
 C         2.388544         1.322719        -0.098417
 C         3.428864         0.384152         0.551267
 O         4.448054         0.878411         1.367668
 C         3.767786        -0.666642        -0.630250
 C         2.278069        -1.158641        -0.388006
 O         1.673830        -2.280582        -0.873079
 C         2.280008        -0.557627         1.072010
 H        -0.642298         1.054833         0.461886
 H        -0.132267         0.780125        -1.272927
 H        -0.780963        -0.460784        -0.342503
 H         2.641866         1.737059        -1.115794
 H         2.115779         2.059076         0.611953
 H         4.559906         1.849493         1.120777
 H         4.062852        -0.144257        -1.584668
 H         4.462229        -1.495764        -0.283086
 H         0.754946        -2.269807        -1.230129
 H         2.168264        -0.792175         2.095034
