19
Iteration:  3499
 C        -0.152779         0.298331        -0.209636
 C         1.350388         0.206335        -0.029505
 C         2.399144         1.387026        -0.064565
 C         3.370237         0.400901         0.522244
 O         4.588517         0.777041         1.219368
 C         3.736759        -0.591096        -0.561780
 C         2.208679        -1.099990        -0.399748
 O         1.802092        -2.325763        -0.865295
 C         2.192808        -0.534632         1.031939
 H        -0.580301         1.066792         0.451374
 H        -0.647524         0.521377        -1.158709
 H        -0.400427        -0.629349         0.167107
 H         2.610421         1.835060        -1.045131
 H         2.109283         2.279440         0.736662
 H         4.257468         1.278253         1.917171
 H         4.295784        -0.267010        -1.474704
 H         4.264372        -1.481478        -0.145104
 H         1.028829        -2.083633        -1.389558
 H         1.873074        -1.121698         1.922583
