19
Iteration:  1996charge 0 multiplicity 1
 C         0.028305         0.284092        -0.300618
 C         1.444545         0.095336         0.081150
 C         2.388345         1.346385        -0.060615
 C         3.329874         0.416867         0.566556
 O         4.512726         0.908921         1.203596
 C         3.702781        -0.731892        -0.506576
 C         2.296166        -1.109112        -0.353949
 O         1.630638        -2.202786        -1.046924
 C         2.216485        -0.583645         1.122420
 H        -0.532224         0.897283         0.368104
 H        -0.103353         0.801675        -1.280839
 H        -0.535326        -0.779793        -0.252279
 H         2.595379         1.799114        -1.130241
 H         2.122373         2.186782         0.586062
 H         4.357655         1.570812         1.948609
 H         4.175362        -0.421665        -1.478117
 H         4.352013        -1.452150        -0.007942
 H         0.653097        -2.009890        -0.951914
 H         2.060714        -1.082998         2.222409
