19
Iteration:    67charge 0 multiplicity 1
 C        -0.056257         0.172941        -0.044975
 C         1.424208         0.078205         0.068297
 C         2.302613         1.439289        -0.015520
 C         3.392886         0.443954         0.510109
 O         4.465121         0.744011         1.243769
 C         3.624197        -0.514561        -0.662958
 C         2.248099        -1.103060        -0.432807
 O         1.740295        -2.250541        -1.027426
 C         2.387296        -0.554075         1.105452
 H        -0.472382         0.615056         0.872927
 H        -0.289037         0.845468        -0.869465
 H        -0.652898        -0.744693        -0.229904
 H         2.518603         1.915378        -0.976834
 H         1.958356         2.190232         0.703085
 H         4.922155         1.507586         0.765242
 H         3.792635         0.151618        -1.554448
 H         4.480338        -1.233050        -0.556782
 H         0.734085        -2.328586        -0.893416
 H         2.163378        -0.949544         2.063752
