19
Iteration:  4203charge 0 multiplicity 1
 C        -0.085169         0.220139        -0.261232
 C         1.386877         0.304387        -0.062591
 C         2.465912         1.387397        -0.078615
 C         3.367196         0.368401         0.467946
 O         4.432245         0.760899         1.332208
 C         3.625805        -0.591036        -0.625512
 C         2.299890        -1.023066        -0.341304
 O         1.745268        -2.254070        -0.812319
 C         2.175428        -0.474063         0.994757
 H        -0.787707         0.472983         0.569164
 H        -0.565955         0.716379        -1.109607
 H        -0.355486        -0.865018        -0.484292
 H         2.749136         1.688333        -1.103770
 H         2.499160         2.198317         0.592255
 H         5.137027         0.091652         1.267367
 H         3.903013        -0.225873        -1.666205
 H         4.285194        -1.411134        -0.109419
 H         2.082709        -2.904420        -0.132985
 H         1.689005        -0.738124         1.856700
