19
Iteration:  3255charge 0 multiplicity 1
 C        -0.133137         0.112126        -0.218638
 C         1.357718         0.197368        -0.069690
 C         2.383758         1.422046        -0.167977
 C         3.459578         0.413533         0.541676
 O         4.596330         0.789466         1.258129
 C         3.688522        -0.726061        -0.520496
 C         2.242446        -1.066693        -0.331727
 O         1.696382        -2.208691        -0.941530
 C         2.242863        -0.478983         1.098579
 H        -0.484523         0.486926         0.711484
 H        -0.443343         0.773217        -1.121979
 H        -0.617243        -0.917945        -0.385647
 H         2.441453         1.855222        -1.092034
 H         2.066439         2.221373         0.577333
 H         4.402381         1.576276         1.908389
 H         4.189837        -0.141735        -1.309563
 H         4.360692        -1.401216         0.009658
 H         0.841023        -1.857295        -1.257326
 H         1.981532        -0.946392         2.026445
