19
Iteration:  2001charge 0 multiplicity 1
 C         0.020079         0.249345        -0.317951
 C         1.435601         0.089723         0.035194
 C         2.398074         1.409527        -0.066202
 C         3.392623         0.433008         0.605412
 O         4.514826         0.924115         1.220126
 C         3.678550        -0.759566        -0.546477
 C         2.294267        -1.105443        -0.339872
 O         1.596694        -2.192042        -1.007015
 C         2.232821        -0.634530         1.130250
 H        -0.518945         0.894642         0.440998
 H        -0.038664         0.795216        -1.289990
 H        -0.364199        -0.749098        -0.443742
 H         2.574143         1.729297        -1.033743
 H         2.000774         2.191803         0.623847
 H         4.263934         1.593225         1.882387
 H         4.098397        -0.305391        -1.432060
 H         4.268120        -1.539744        -0.021398
 H         0.665702        -2.009203        -1.043014
 H         2.159581        -1.074705         2.016821
