19
Iteration:  4965charge 0 multiplicity 1
 C        -0.138629         0.455862        -0.132658
 C         1.392190         0.098137        -0.030019
 C         2.250574         1.307880         0.063206
 C         3.416946         0.386159         0.520236
 O         4.463278         0.971294         1.353098
 C         3.760200        -0.618294        -0.659477
 C         2.261932        -1.118036        -0.457454
 O         1.908700        -2.349245        -0.916525
 C         2.142822        -0.664030         0.965059
 H        -0.449770         1.018533         0.737374
 H        -0.379590         1.086830        -0.980729
 H        -0.905367        -0.416306        -0.187058
 H         2.490342         1.940947        -0.892099
 H         1.809631         1.910636         0.890456
 H         5.262294         0.770139         0.903663
 H         4.179202        -0.242414        -1.586614
 H         4.281641        -1.400180        -0.123599
 H         1.278409        -2.277956        -1.670323
 H         1.768732        -1.091177         1.820040
