19
Iteration:  2843charge 0 multiplicity 1
 C        -0.077761         0.301649        -0.182069
 C         1.423974         0.208675        -0.132540
 C         2.367933         1.381000        -0.052763
 C         3.400172         0.422599         0.479674
 O         4.362196         0.718216         1.456056
 C         3.646536        -0.524529        -0.837327
 C         2.311680        -1.074174        -0.415335
 O         1.747115        -2.303683        -0.668044
 C         2.296811        -0.588421         0.944393
 H        -0.469830         0.687390         0.832732
 H        -0.390143         0.800920        -1.100012
 H        -0.367310        -0.753010        -0.278183
 H         2.516432         1.932643        -0.938193
 H         2.049020         1.977336         0.891117
 H         5.032906         1.270744         1.107835
 H         3.869651         0.136362        -1.676068
 H         4.395869        -1.206787        -0.499253
 H         1.418877        -2.544467        -1.546669
 H         2.073521        -1.034164         2.078598
