19
Iteration:   222
 C        -0.144591         0.263012        -0.022638
 C         1.369867         0.097863        -0.016576
 C         2.357963         1.416272         0.098596
 C         3.417157         0.420266         0.493598
 O         4.542662         0.902134         1.293225
 C         3.724082        -0.645387        -0.735311
 C         2.237570        -1.164092        -0.420336
 O         1.792190        -2.251350        -1.120493
 C         2.213417        -0.576662         1.083563
 H        -0.431451         0.780278         0.899597
 H        -0.514498         0.988780        -0.695376
 H        -0.702222        -0.679994        -0.058366
 H         2.408666         2.210102        -0.626132
 H         2.086469         1.910057         0.969868
 H         4.939838         1.652977         0.888736
 H         3.737129        -0.277106        -1.688811
 H         4.435614        -1.430291        -0.561482
 H         1.138802        -2.774865        -0.664116
 H         1.760831        -1.103233         2.109018
