19
Iteration:  1731
 C        -0.191997         0.276895        -0.226823
 C         1.380791         0.213091        -0.043555
 C         2.422566         1.401916        -0.011870
 C         3.413180         0.364407         0.545851
 O         4.554263         0.840551         1.360680
 C         3.688243        -0.654105        -0.575205
 C         2.195687        -1.099963        -0.374967
 O         1.768797        -2.264626        -0.924534
 C         2.179083        -0.528480         1.030039
 H        -0.631385         1.047454         0.495356
 H        -0.406572         0.192269        -1.292654
 H        -0.514498        -0.719643         0.245593
 H         2.787352         1.845915        -0.974909
 H         2.118695         2.302776         0.621694
 H         5.324978         0.759884         0.725131
 H         3.799181        -0.227815        -1.620278
 H         4.324191        -1.522428        -0.308690
 H         1.517604        -2.113215        -1.878151
 H         1.774384        -1.036445         2.016135
