19
Iteration:  2417charge 0 multiplicity 1
 C        -0.173421         0.214497        -0.205015
 C         1.419775         0.177600        -0.057441
 C         2.377602         1.415020        -0.006986
 C         3.421199         0.365518         0.556454
 O         4.505708         0.842416         1.334259
 C         3.704194        -0.615130        -0.598407
 C         2.199819        -1.070330        -0.402054
 O         1.776439        -2.341170        -0.897944
 C         2.237820        -0.476463         1.028280
 H        -0.740583         0.770396         0.502502
 H        -0.564653         0.742603        -1.146684
 H        -0.434184        -0.826281        -0.244596
 H         2.629451         1.875575        -0.971252
 H         2.014143         2.092873         0.676106
 H         5.207835         1.152203         0.805113
 H         3.939778        -0.165163        -1.624243
 H         4.472177        -1.317168        -0.249611
 H         1.013225        -2.120434        -1.443840
 H         2.021279        -0.930752         2.064334
