19
Iteration:  4951
 C        -0.112511         0.389192        -0.219565
 C         1.311265         0.158411        -0.055736
 C         2.354459         1.339592         0.106160
 C         3.418959         0.412942         0.577141
 O         4.444925         0.944938         1.342098
 C         3.636514        -0.571863        -0.566567
 C         2.259790        -1.101512        -0.483681
 O         1.813410        -2.441290        -0.949421
 C         2.287980        -0.640334         1.006993
 H        -0.413818         1.016833         0.670619
 H        -0.307428         0.920198        -1.209257
 H        -0.634104        -0.567970        -0.198914
 H         2.477259         1.974064        -0.835654
 H         2.179873         2.003533         0.959859
 H         5.238701         1.218696         0.756428
 H         3.891724        -0.171218        -1.531313
 H         4.348500        -1.281950        -0.329563
 H         1.390877        -2.283070        -1.800015
 H         2.128704        -1.304014         1.983534
