19
Iteration:  3901
 C        -0.077725         0.317897        -0.304856
 C         1.446298         0.207951        -0.068981
 C         2.351436         1.414897         0.008279
 C         3.480903         0.399222         0.541583
 O         4.518490         0.792840         1.347525
 C         3.631801        -0.595785        -0.711919
 C         2.225905        -1.080953        -0.447933
 O         1.671656        -2.323355        -0.689735
 C         2.265793        -0.601571         0.987515
 H        -0.605060         1.149462         0.103384
 H        -0.335713         0.184447        -1.361906
 H        -0.498154        -0.705213         0.030238
 H         2.545748         1.989361        -0.886526
 H         2.102246         2.111890         0.842376
 H         4.184653         1.575589         1.828552
 H         3.863487        -0.248476        -1.803122
 H         4.430223        -1.332721        -0.557795
 H         1.778709        -2.590924        -1.629780
 H         1.915179        -0.962501         1.994448
