19
Iteration:  4191
 C        -0.066262         0.212768        -0.276462
 C         1.397969         0.324023         0.041455
 C         2.482029         1.444162        -0.131265
 C         3.402524         0.381781         0.509213
 O         4.385225         0.799901         1.278228
 C         3.735780        -0.627998        -0.605238
 C         2.245017        -1.101678        -0.342549
 O         1.693680        -2.267388        -0.842724
 C         2.076050        -0.497071         1.049052
 H        -0.599003         0.531809         0.667468
 H        -0.227043         0.900898        -1.132582
 H        -0.268728        -0.844140        -0.521550
 H         2.751272         1.821860        -1.145685
 H         2.177730         2.263597         0.488161
 H         5.000594         0.103660         1.386667
 H         3.984513        -0.269622        -1.652200
 H         4.589550        -1.371025        -0.351127
 H         2.283256        -2.993585        -0.584942
 H         2.066267        -0.858707         2.068050
