19
Iteration:   204
 C        -0.107886         0.203396        -0.023726
 C         1.409481         0.185300        -0.075396
 C         2.253369         1.350522         0.140412
 C         3.439385         0.354660         0.526976
 O         4.564184         0.790139         1.179422
 C         3.653107        -0.538023        -0.600068
 C         2.269951        -1.084371        -0.423911
 O         1.787288        -2.228898        -1.053040
 C         2.244255        -0.568064         0.999672
 H        -0.517125         0.602858         0.946582
 H        -0.501069         0.645940        -1.005797
 H        -0.548453        -0.805109        -0.043128
 H         2.484937         2.068492        -0.720137
 H         1.876636         1.929261         1.094953
 H         4.753809         1.659541         0.878666
 H         4.021178        -0.127736        -1.662056
 H         4.416001        -1.315887        -0.165872
 H         0.877322        -2.298796        -0.743305
 H         1.896608        -0.758542         1.977285
