19
Iteration:  1522
 C        -0.023731         0.066923        -0.323263
 C         1.426251         0.230347         0.046587
 C         2.389125         1.397361         0.045424
 C         3.394167         0.368321         0.534971
 O         4.527444         0.742407         1.241518
 C         3.637436        -0.631196        -0.721487
 C         2.293115        -1.035206        -0.321384
 O         1.671141        -2.119812        -0.957326
 C         2.221053        -0.500891         1.120684
 H        -0.630891         0.608508         0.328149
 H        -0.166273         0.278651        -1.355229
 H        -0.474474        -0.882834        -0.231607
 H         2.668703         1.937065        -0.895044
 H         2.219582         2.188871         0.827088
 H         4.490176         1.490624         1.812656
 H         3.702245        -0.008773        -1.607306
 H         4.387250        -1.406356        -0.576889
 H         1.066353        -2.567423        -0.359903
 H         1.829707        -0.919734         2.045798
