19
Iteration:  1958
 C        -0.162765         0.300403        -0.140256
 C         1.346731         0.254132        -0.096969
 C         2.417047         1.358934        -0.119704
 C         3.414996         0.392401         0.602947
 O         4.586695         0.788122         1.315204
 C         3.612638        -0.689604        -0.569276
 C         2.204556        -1.070142        -0.408034
 O         1.911721        -2.288609        -1.010984
 C         2.131608        -0.515927         1.049391
 H        -0.308561         1.390695         0.209801
 H        -0.644981         0.140992        -1.095027
 H        -0.509389        -0.412406         0.511261
 H         2.914048         1.707629        -1.043880
 H         2.149169         2.122219         0.664717
 H         4.366063         1.623069         1.865893
 H         3.744307        -0.538161        -1.690851
 H         4.243447        -1.471427        -0.055583
 H         1.005012        -2.520806        -0.817652
 H         1.813927        -0.972629         1.876997
