19
Iteration:  1825
 C        -0.110497         0.267151        -0.248162
 C         1.427801         0.188050        -0.026131
 C         2.377648         1.406251        -0.011971
 C         3.433745         0.391909         0.549524
 O         4.568499         0.872378         1.174150
 C         3.689912        -0.705701        -0.510182
 C         2.280527        -1.115908        -0.361922
 O         1.691097        -2.263695        -0.979130
 C         2.153192        -0.532846         1.085581
 H        -0.561817         0.482924         0.721529
 H        -0.314793         0.980621        -1.078707
 H        -0.513563        -0.673315        -0.510705
 H         2.547507         2.021897        -1.011987
 H         2.106338         2.260252         0.721118
 H         4.467469         0.708048         2.133017
 H         4.062079        -0.240062        -1.469350
 H         4.540347        -1.305950         0.030255
 H         0.824057        -2.199837        -1.357077
 H         1.980228        -1.133846         2.090610
