19
Iteration:   374
 C        -0.028594         0.265566        -0.104468
 C         1.450895         0.111343         0.027942
 C         2.368573         1.331811         0.094357
 C         3.430668         0.370840         0.477757
 O         4.358723         0.953878         1.308302
 C         3.623767        -0.577166        -0.696023
 C         2.356539        -1.132701        -0.372396
 O         1.599696        -2.172855        -1.027161
 C         2.347009        -0.666167         0.990145
 H        -0.326578         0.999056         0.677430
 H        -0.339736         0.557580        -1.135940
 H        -0.629591        -0.642019         0.192259
 H         2.582467         1.868958        -0.882958
 H         2.180964         2.004029         0.955192
 H         5.209863         1.224387         0.917290
 H         3.700294        -0.133224        -1.816978
 H         4.463347        -1.282864        -0.592712
 H         1.591210        -2.987015        -0.522182
 H         1.952832        -1.115600         1.818339
