19
Iteration:  3832
 C        -0.005785         0.150687        -0.184290
 C         1.476486         0.196879         0.046469
 C         2.471600         1.313571        -0.177710
 C         3.368901         0.413391         0.546799
 O         4.478613         0.853597         1.207788
 C         3.678678        -0.760609        -0.509540
 C         2.209022        -1.046160        -0.353024
 O         1.718594        -2.191165        -1.038507
 C         2.181632        -0.458823         1.195311
 H        -0.460333         0.685429         0.697089
 H        -0.374827         0.658074        -1.101002
 H        -0.424053        -0.894805        -0.290266
 H         2.692107         1.546039        -1.173029
 H         1.943762         2.149796         0.336528
 H         4.271944         1.489952         1.989200
 H         3.903607        -0.569703        -1.618330
 H         4.533825        -1.331074        -0.030904
 H         0.795341        -2.031609        -1.351635
 H         1.719079        -0.582451         2.179593
