19
Iteration:   277
 C        -0.114450         0.181591        -0.016943
 C         1.380526         0.174220        -0.043150
 C         2.294992         1.363415        -0.016460
 C         3.412485         0.425654         0.491437
 O         4.442229         0.743991         1.471668
 C         3.724276        -0.527579        -0.820896
 C         2.329569        -1.103138        -0.473449
 O         1.612330        -2.128066        -0.884590
 C         2.368250        -0.547918         0.889894
 H        -0.479761         0.639290         0.880726
 H        -0.543323         0.472478        -0.930832
 H        -0.492048        -0.833642         0.098684
 H         2.467667         1.802948        -0.991509
 H         2.011814         2.057468         0.725534
 H         5.113119         1.316045         1.034915
 H         3.815576        -0.192106        -1.772746
 H         4.543219        -1.195947        -0.609474
 H         1.957794        -3.006603        -0.728604
 H         2.290599        -1.076528         1.895228
