19
Iteration:  3053
 C        -0.031915         0.249975        -0.308916
 C         1.348162         0.119652        -0.043291
 C         2.340437         1.328636         0.044370
 C         3.411827         0.364877         0.537417
 O         4.634376         0.913478         1.158940
 C         3.696129        -0.665978        -0.513822
 C         2.234046        -1.107092        -0.319921
 O         1.682217        -2.256051        -0.904030
 C         2.162268        -0.543049         1.079589
 H        -0.594708         0.766290         0.581515
 H        -0.275959         0.866611        -1.164034
 H        -0.421485        -0.755657        -0.392334
 H         2.634630         1.905172        -0.817186
 H         1.983660         2.070094         0.910910
 H         4.469306         1.769474         1.620602
 H         3.996788        -0.240038        -1.515737
 H         4.448602        -1.437717        -0.192965
 H         1.170690        -1.905021        -1.679744
 H         1.910410        -1.102321         1.982636
