19
Iteration:  1971
 C        -0.177613         0.336054        -0.188323
 C         1.383894         0.125770        -0.073670
 C         2.400120         1.321876        -0.110459
 C         3.418035         0.342156         0.553211
 O         4.587871         0.842992         1.251523
 C         3.679310        -0.745012        -0.513146
 C         2.237112        -1.075603        -0.284910
 O         1.855120        -2.181791        -1.057551
 C         2.140720        -0.533522         1.105937
 H        -0.572138         1.278815         0.313171
 H        -0.509000         0.401899        -1.197167
 H        -0.713006        -0.448997         0.312206
 H         2.565114         1.883263        -1.131178
 H         2.039331         2.140559         0.539894
 H         4.314639         1.468605         1.919267
 H         4.124391        -0.246490        -1.451927
 H         4.278315        -1.632707        -0.292464
 H         0.896425        -2.428336        -0.942022
 H         1.837355        -0.833941         2.073722
