19
Iteration:  1076charge 0 multiplicity 1
 C        -0.112900         0.244744         0.000858
 C         1.380978         0.167091         0.063817
 C         2.384615         1.307659        -0.130201
 C         3.478101         0.392619         0.523203
 O         4.327588         1.002657         1.391451
 C         3.736079        -0.605572        -0.699736
 C         2.331754        -1.162867        -0.419752
 O         1.630147        -2.215320        -0.996637
 C         2.348640        -0.675651         1.019199
 H        -0.548585         0.927907         0.799911
 H        -0.413195         0.663283        -0.999410
 H        -0.571085        -0.832007         0.027743
 H         2.747783         1.686415        -1.080976
 H         2.152129         2.102868         0.596188
 H         5.222916         0.787575         1.166644
 H         3.811180        -0.095524        -1.696099
 H         4.480649        -1.387724        -0.442281
 H         1.410046        -1.863235        -1.909414
 H         2.123038        -1.173429         2.057158
