19
Iteration:  3859
 C        -0.184144         0.303325        -0.258432
 C         1.363422         0.164754        -0.056642
 C         2.377159         1.279591        -0.112608
 C         3.371832         0.392311         0.590181
 O         4.644389         0.922058         1.192101
 C         3.768524        -0.723286        -0.460950
 C         2.241802        -1.086923        -0.276319
 O         1.711231        -2.234726        -1.002565
 C         2.250386        -0.604814         1.109907
 H        -0.587946         0.977101         0.468281
 H        -0.486590         0.560563        -1.273753
 H        -0.674457        -0.705492        -0.126920
 H         2.648058         1.780218        -1.109011
 H         1.859896         1.946036         0.572024
 H         4.442397         1.672744         1.890373
 H         4.119292        -0.280661        -1.437211
 H         4.418250        -1.483654        -0.037532
 H         0.879937        -1.841097        -1.362699
 H         1.749628        -0.900661         2.076314
