19
Iteration:  3644charge 0 multiplicity 1
 C        -0.126355         0.346319        -0.125146
 C         1.392851         0.094606        -0.049197
 C         2.394102         1.304558        -0.130416
 C         3.420998         0.363926         0.501287
 O         4.428157         0.789390         1.289949
 C         3.778624        -0.610098        -0.671059
 C         2.237715        -1.088957        -0.398809
 O         1.798563        -2.236251        -0.841537
 C         2.200429        -0.483179         1.026300
 H        -0.375111         0.858251         0.811362
 H        -0.411510         0.908875        -0.959977
 H        -0.673286        -0.494683        -0.293990
 H         2.841106         1.649011        -1.000299
 H         2.202173         2.206568         0.556095
 H         3.952185         1.355553         1.969030
 H         4.196722        -0.255816        -1.652904
 H         4.489922        -1.377403        -0.372119
 H         0.857354        -2.472851        -0.868548
 H         2.031571        -0.931964         1.916013
