19
Iteration:  4218charge 0 multiplicity 1
 C        -0.147946         0.189624        -0.269595
 C         1.381569         0.203384        -0.175526
 C         2.412488         1.446115        -0.117211
 C         3.481200         0.393765         0.574527
 O         4.521769         0.776152         1.395799
 C         3.670841        -0.636803        -0.641820
 C         2.170386        -0.989823        -0.405599
 O         1.748206        -2.277321        -0.795950
 C         2.182566        -0.458944         1.002858
 H        -0.515406         0.697358         0.590648
 H        -0.406687         0.813550        -1.116305
 H        -0.449437        -0.860040        -0.338533
 H         2.691055         2.095829        -0.945584
 H         1.840354         2.124925         0.590769
 H         5.204218         0.186694         1.188361
 H         3.987567        -0.210324        -1.606854
 H         4.361568        -1.480918        -0.488004
 H         1.528809        -2.791889         0.000144
 H         1.937238        -0.890839         2.034592
