19
Iteration:  2165
 C         0.004458         0.072031        -0.292535
 C         1.481742         0.180017        -0.018601
 C         2.418683         1.364526        -0.086486
 C         3.494574         0.387144         0.566243
 O         4.482379         0.835169         1.369467
 C         3.717639        -0.682825        -0.600613
 C         2.218014        -1.036592        -0.344436
 O         1.488333        -2.091671        -0.953689
 C         2.193328        -0.483263         1.054382
 H        -0.642521         0.935138        -0.015866
 H        -0.323254        -0.071156        -1.400657
 H        -0.368328        -0.869813         0.157727
 H         2.796307         1.799288        -1.007778
 H         2.090948         2.053112         0.780900
 H         4.501529         1.808435         1.173567
 H         3.984009        -0.310582        -1.588033
 H         4.317865        -1.541090        -0.293626
 H         2.086561        -2.863597        -0.748322
 H         1.990159        -1.012753         2.075354
