19
Iteration:   680charge 0 multiplicity 1
 C        -0.112105         0.040180        -0.180412
 C         1.394271         0.223522        -0.065549
 C         2.366750         1.351667         0.151724
 C         3.457777         0.400127         0.570281
 O         4.578098         0.851239         1.212295
 C         3.644038        -0.466616        -0.706675
 C         2.253521        -0.959712        -0.411860
 O         1.642919        -2.209546        -0.929250
 C         2.179899        -0.563651         1.011542
 H        -0.654066         0.651100         0.650577
 H        -0.631709         0.390333        -1.134622
 H        -0.221007        -1.032398        -0.012516
 H         2.731320         1.917506        -0.743009
 H         2.083244         1.905029         1.060845
 H         5.036014         0.068871         1.442074
 H         3.736243         0.143287        -1.651169
 H         4.468214        -1.291633        -0.562455
 H         2.388974        -2.841400        -0.869638
 H         1.625411        -1.042629         1.974556
