19
Iteration:  4895charge 0 multiplicity 1
 C        -0.076217        -0.081759        -0.273600
 C         1.376436         0.208795        -0.024595
 C         2.375593         1.517295        -0.017359
 C         3.418846         0.451098         0.591771
 O         4.555338         0.664350         1.396452
 C         3.744263        -0.494089        -0.735390
 C         2.286139        -0.977785        -0.425350
 O         1.542351        -2.212992        -0.860553
 C         2.322940        -0.518427         1.021988
 H        -0.888812         0.580635         0.182500
 H        -0.251869        -0.071338        -1.414878
 H        -0.280837        -1.053292         0.049202
 H         2.649870         2.037616        -1.008848
 H         2.048709         2.313395         0.714017
 H         4.350758         1.465230         1.750952
 H         4.139537        -0.148702        -1.598926
 H         4.259820        -1.177901        -0.131974
 H         1.227108        -2.182439        -1.801569
 H         2.121930        -0.822539         2.160105
