19
Iteration:   123charge 0 multiplicity 1
 C        -0.064794         0.171997        -0.026292
 C         1.408773         0.163428         0.026156
 C         2.300317         1.370981         0.116761
 C         3.416196         0.418620         0.528740
 O         4.539052         0.911640         1.203591
 C         3.697856        -0.539937        -0.717290
 C         2.253055        -1.048213        -0.511282
 O         1.590291        -2.203270        -0.953999
 C         2.280837        -0.644742         0.960308
 H        -0.508482         1.018885         0.529460
 H        -0.466440         0.146946        -1.025116
 H        -0.420420        -0.774287         0.452495
 H         2.541570         1.907228        -0.812305
 H         1.967703         2.007874         0.891913
 H         4.971334         0.325191         1.831186
 H         4.132833        -0.129624        -1.671535
 H         4.429733        -1.256789        -0.275237
 H         2.226787        -2.853392        -1.327033
 H         1.855199        -0.992952         1.995894
