19
Iteration:  3822
 C        -0.036123         0.168668        -0.157171
 C         1.426756         0.208330        -0.048509
 C         2.432430         1.383300        -0.196355
 C         3.371527         0.363715         0.552008
 O         4.450175         0.813376         1.222485
 C         3.691403        -0.719967        -0.521239
 C         2.238306        -1.104241        -0.309793
 O         1.730117        -2.169637        -0.975256
 C         2.242186        -0.465754         1.115563
 H        -0.704956         0.527428         0.649457
 H        -0.377754         0.630471        -1.091782
 H        -0.276549        -0.966824        -0.164834
 H         2.825984         1.707414        -1.110319
 H         2.407436         2.308619         0.468980
 H         4.029242         1.447259         1.880295
 H         4.223476        -0.307169        -1.466142
 H         4.224094        -1.662956        -0.151136
 H         0.793741        -1.941093        -1.183553
 H         1.891658        -0.626031         2.112239
