19
Iteration:  1515charge 0 multiplicity 1
 C        -0.052674         0.092579        -0.325955
 C         1.359672         0.247775         0.021436
 C         2.427814         1.402778         0.059797
 C         3.419118         0.380606         0.518485
 O         4.574259         0.685451         1.189661
 C         3.623567        -0.566788        -0.683855
 C         2.263017        -1.072218        -0.300451
 O         1.757877        -2.134257        -0.936000
 C         2.159781        -0.521495         1.122579
 H        -0.765181         0.770635         0.317902
 H        -0.395655         0.371493        -1.408608
 H        -0.376070        -1.051327        -0.115331
 H         2.697593         1.907813        -0.818579
 H         2.195559         2.091521         0.916501
 H         4.188632         1.514996         1.675493
 H         3.827153         0.064559        -1.628523
 H         4.432828        -1.291817        -0.449202
 H         1.049353        -2.402854        -0.366814
 H         1.752209        -0.928282         1.986010
