19
Iteration:  3376
 C        -0.077556         0.061694        -0.265244
 C         1.413792         0.207640         0.047160
 C         2.416895         1.390503        -0.076391
 C         3.448828         0.459211         0.530286
 O         4.662252         0.797096         1.232041
 C         3.598741        -0.610109        -0.581812
 C         2.209510        -1.147516        -0.313970
 O         1.661146        -2.205368        -0.966213
 C         2.158936        -0.476569         1.136587
 H        -0.676815         0.869989         0.060154
 H        -0.153919         0.144363        -1.386029
 H        -0.552465        -0.823567         0.155143
 H         2.743709         1.945040        -0.963408
 H         2.089122         2.184606         0.743832
 H         4.424955         1.419657         1.885362
 H         3.991759        -0.279195        -1.588610
 H         4.303307        -1.375606        -0.190527
 H         1.183729        -1.848460        -1.725459
 H         1.762928        -0.899482         2.155726
