19
Iteration:  3576charge 0 multiplicity 1
 C        -0.084155         0.251882        -0.271658
 C         1.403252         0.194926        -0.098025
 C         2.361752         1.329859         0.006519
 C         3.427773         0.375889         0.498298
 O         4.549527         0.797539         1.234463
 C         3.678612        -0.635917        -0.626605
 C         2.212940        -1.024370        -0.376821
 O         1.686137        -2.168054        -0.755897
 C         2.225988        -0.645176         1.078516
 H        -0.606978         0.992250         0.311761
 H        -0.365562         0.192320        -1.306895
 H        -0.403221        -0.672752        -0.042425
 H         2.511876         1.798051        -0.945718
 H         2.058496         2.092119         0.762672
 H         4.227183         1.656328         1.683332
 H         4.021633        -0.256525        -1.615747
 H         4.390513        -1.437678        -0.365748
 H         2.027943        -2.093503        -1.685431
 H         1.967632        -1.082639         2.147857
