19
Iteration:  3105
 C        -0.060984         0.155844        -0.183300
 C         1.403754         0.147410         0.025060
 C         2.428676         1.384968        -0.157284
 C         3.435390         0.381919         0.491213
 O         4.466966         0.814110         1.325752
 C         3.777639        -0.657241        -0.568219
 C         2.247081        -1.007754        -0.414368
 O         1.609935        -2.205833        -0.879497
 C         2.275092        -0.532266         1.050601
 H        -0.461137         1.112729         0.213040
 H        -0.344104         0.208028        -1.240362
 H        -0.489095        -0.680828         0.300128
 H         2.447281         1.663426        -1.205866
 H         1.942052         2.146716         0.344726
 H         4.193425         1.584679         1.947207
 H         4.269441        -0.390748        -1.510964
 H         4.471475        -1.396159        -0.155617
 H         0.901260        -1.919888        -1.499528
 H         2.076737        -1.110627         1.864834
