19
Iteration:  2982charge 0 multiplicity 1
 C        -0.046296         0.249957        -0.112361
 C         1.462590         0.263872        -0.087334
 C         2.409444         1.451424        -0.085457
 C         3.427492         0.446227         0.488518
 O         4.416968         0.752066         1.380864
 C         3.678489        -0.539951        -0.755036
 C         2.288779        -1.140722        -0.439191
 O         1.675425        -2.379861        -0.731116
 C         2.233233        -0.533330         0.931759
 H        -0.427942         0.912354         0.658411
 H        -0.430972         0.550059        -1.169791
 H        -0.500372        -0.779669         0.128919
 H         2.754875         1.844656        -1.093075
 H         1.908340         2.207101         0.482757
 H         4.103571         0.668695         2.299419
 H         3.702717        -0.053242        -1.800283
 H         4.640649        -1.009013        -0.424771
 H         1.566529        -2.303585        -1.717909
 H         2.074577        -0.940691         2.072046
