19
Iteration:  3995
 C        -0.028358         0.245057        -0.195392
 C         1.437962         0.127168        -0.055002
 C         2.446691         1.351203        -0.090259
 C         3.390960         0.405301         0.554009
 O         4.529741         0.970839         1.220532
 C         3.727457        -0.739265        -0.496097
 C         2.275300        -1.132629        -0.362662
 O         1.609696        -2.178239        -0.895702
 C         2.140712        -0.650650         1.102845
 H        -0.466821         0.854435         0.619719
 H        -0.087072         0.792652        -1.149409
 H        -0.467905        -0.739937        -0.375175
 H         2.625330         1.788092        -1.143888
 H         2.017170         2.175625         0.501880
 H         4.219124         1.823804         1.541551
 H         4.033218        -0.393531        -1.472929
 H         4.385358        -1.592281        -0.195430
 H         1.487475        -2.154651        -1.855521
 H         1.650158        -1.084755         1.967288
