19
Iteration:  3051charge 0 multiplicity 1
 C        -0.046352         0.252573        -0.304703
 C         1.345880         0.130691        -0.028683
 C         2.354542         1.352809         0.045948
 C         3.399185         0.374881         0.543510
 O         4.636561         0.888376         1.147609
 C         3.720878        -0.660643        -0.506874
 C         2.212758        -1.107492        -0.328036
 O         1.689814        -2.264114        -0.895704
 C         2.170978        -0.556611         1.065721
 H        -0.612139         0.720172         0.592388
 H        -0.253551         0.839197        -1.208563
 H        -0.484016        -0.721111        -0.426233
 H         2.598287         1.901068        -0.817402
 H         1.942481         2.055699         0.865005
 H         4.411445         1.785400         1.624919
 H         3.986309        -0.177650        -1.491324
 H         4.466753        -1.401817        -0.120940
 H         1.201926        -1.967315        -1.683724
 H         1.945943        -1.037277         1.910714
