19
Iteration:  2303charge 0 multiplicity 1
 C        -0.115352         0.105147        -0.134167
 C         1.357743         0.177822        -0.028429
 C         2.374703         1.415876        -0.120515
 C         3.393649         0.418633         0.586582
 O         4.582518         0.861959         1.255711
 C         3.758288        -0.726707        -0.538893
 C         2.250830        -1.119186        -0.370761
 O         1.711675        -2.202587        -1.033280
 C         2.208430        -0.432533         1.087628
 H        -0.700849         0.883599         0.432191
 H        -0.366914         0.419759        -1.120805
 H        -0.341135        -0.980107         0.013847
 H         2.450052         1.753311        -1.141665
 H         2.199495         2.236281         0.474087
 H         4.285431         1.158154         2.157290
 H         4.148768        -0.424822        -1.501703
 H         4.350806        -1.568908        -0.102910
 H         1.001026        -1.976240        -1.626515
 H         1.848447        -0.691651         2.193668
