19
Iteration:  4257
 C        -0.000786         0.306679        -0.291735
 C         1.462546         0.167569        -0.038679
 C         2.408933         1.359262        -0.026942
 C         3.361175         0.315815         0.512528
 O         4.361521         0.949484         1.256162
 C         3.684695        -0.637854        -0.599464
 C         2.250009        -1.056929        -0.343830
 O         1.719381        -2.248546        -0.881495
 C         2.285316        -0.647847         1.097233
 H        -0.433028         1.173869         0.297824
 H        -0.202972         0.467355        -1.370060
 H        -0.711786        -0.517046         0.022183
 H         2.732994         1.912820        -0.962150
 H         2.008687         1.987837         0.754823
 H         5.289245         0.548728         1.209931
 H         3.931133        -0.272072        -1.614621
 H         4.253451        -1.547489        -0.332438
 H         0.770241        -2.303313        -0.634592
 H         1.958371        -0.915556         2.043647
