19
Iteration:  2820charge 0 multiplicity 1
 C        -0.145631         0.304434        -0.100258
 C         1.367831         0.114404        -0.082801
 C         2.330071         1.445146        -0.126241
 C         3.447664         0.366043         0.499049
 O         4.405410         0.762507         1.444286
 C         3.738818        -0.542706        -0.706802
 C         2.322283        -1.096717        -0.391579
 O         1.752472        -2.337226        -0.836973
 C         2.233846        -0.459219         0.990098
 H        -0.387712         0.833235         0.890651
 H        -0.359262         0.777807        -1.042377
 H        -0.649944        -0.706535        -0.101223
 H         2.518499         1.730366        -1.112868
 H         2.031483         2.234642         0.668503
 H         5.298661         0.986290         0.944547
 H         3.813073        -0.073970        -1.688582
 H         4.439696        -1.319305        -0.360131
 H         1.551076        -2.396307        -1.786480
 H         1.989728        -1.024516         2.022244
