19
Iteration:  4785charge 0 multiplicity 1
 C        -0.148417         0.225273        -0.154432
 C         1.411041         0.195002        -0.104049
 C         2.369503         1.392498         0.087270
 C         3.437361         0.383119         0.520704
 O         4.475962         0.804038         1.365870
 C         3.745461        -0.547569        -0.675306
 C         2.278712        -1.068338        -0.472600
 O         1.711598        -2.295250        -0.858306
 C         2.192177        -0.570550         0.985462
 H        -0.352078         0.243899         0.911720
 H        -0.670050         0.945852        -0.798522
 H        -0.389639        -0.727209        -0.553412
 H         2.713873         1.842039        -0.903811
 H         1.965933         2.050666         0.876579
 H         4.509759         1.807491         1.346986
 H         4.039563        -0.100562        -1.634506
 H         4.411034        -1.380407        -0.423506
 H         1.742611        -2.365336        -1.830835
 H         1.910995        -1.147094         1.768814
