19
Iteration:  3608
 C        -0.112884         0.424178        -0.160116
 C         1.319659         0.157129        -0.053845
 C         2.377383         1.446027         0.020554
 C         3.360070         0.442014         0.498441
 O         4.627249         0.801502         1.225274
 C         3.686707        -0.604051        -0.591493
 C         2.220908        -1.130704        -0.443484
 O         1.867814        -2.465187        -0.850725
 C         2.113524        -0.578290         1.012182
 H        -0.605299         1.115028         0.530321
 H        -0.242151         0.787739        -1.222155
 H        -0.646176        -0.481521        -0.012840
 H         2.523783         1.805725        -0.982606
 H         1.996661         2.175558         0.618471
 H         4.398617         1.337923         2.015145
 H         4.021256        -0.169818        -1.529610
 H         4.359104        -1.302159        -0.074593
 H         1.378406        -2.483136        -1.698453
 H         1.635451        -0.628377         2.092934
