19
Iteration:  4104
 C        -0.113290         0.172507        -0.283982
 C         1.377617         0.177424        -0.100898
 C         2.380623         1.346958        -0.111127
 C         3.453834         0.362936         0.548441
 O         4.512573         0.826942         1.372226
 C         3.660997        -0.662987        -0.569659
 C         2.236495        -1.016661        -0.341288
 O         1.744647        -2.185843        -0.950440
 C         2.255574        -0.401473         1.094381
 H        -0.617666         1.076687         0.088390
 H        -0.548137         0.292900        -1.268723
 H        -0.683463        -0.609871         0.158586
 H         2.532355         1.893211        -1.060235
 H         1.967509         2.073979         0.542842
 H         5.286523         0.319206         1.380109
 H         3.846895        -0.304985        -1.626321
 H         4.276043        -1.625619        -0.378861
 H         1.272018        -2.799046        -0.348676
 H         1.849195        -0.881144         2.052274
