19
Iteration:  1254charge 0 multiplicity 1
 C        -0.152910        -0.054508         0.010696
 C         1.346135         0.238757        -0.021436
 C         2.367921         1.508541        -0.188780
 C         3.421361         0.473057         0.505794
 O         4.601842         0.640629         1.306935
 C         3.671510        -0.608243        -0.527231
 C         2.237872        -1.016811        -0.369761
 O         1.718316        -2.244447        -0.997744
 C         2.202338        -0.346706         0.994097
 H        -0.704813         0.448481         0.835325
 H        -0.681090         0.392869        -0.930006
 H        -0.132234        -1.131630         0.004350
 H         2.724264         1.851034        -1.238251
 H         2.180064         2.398859         0.420332
 H         4.608929         1.455542         1.766786
 H         3.985264        -0.474878        -1.601545
 H         4.393355        -1.286745        -0.015551
 H         1.765301        -2.057719        -1.981795
 H         1.921440        -0.839353         2.070896
