19
Iteration:  2130charge 0 multiplicity 1
 C        -0.034807         0.259896        -0.191239
 C         1.425246         0.133862        -0.056304
 C         2.421584         1.281470        -0.084928
 C         3.464479         0.392610         0.537449
 O         4.449437         0.917916         1.324870
 C         3.815646        -0.669735        -0.498791
 C         2.306898        -1.080127        -0.432085
 O         1.512212        -2.176991        -1.034517
 C         2.229153        -0.568172         1.036008
 H        -0.341533         1.139954         0.283309
 H        -0.344616         0.186631        -1.261696
 H        -0.531013        -0.536470         0.450947
 H         2.517901         1.908407        -1.023397
 H         1.932733         2.058080         0.577968
 H         4.044249         1.750015         1.646763
 H         4.284091        -0.380493        -1.415286
 H         4.390396        -1.564302        -0.121763
 H         1.398044        -2.897108        -0.348566
 H         2.038117        -1.086386         1.952698
