19
Iteration:   292
 C        -0.041077         0.036941        -0.042653
 C         1.462035         0.184690        -0.120787
 C         2.365715         1.497848         0.011618
 C         3.468198         0.458355         0.459306
 O         4.455402         0.730551         1.410902
 C         3.639647        -0.536821        -0.756789
 C         2.245461        -1.023640        -0.456616
 O         1.536430        -2.243328        -0.917006
 C         2.339868        -0.550332         1.014660
 H        -0.427418         0.748612         0.738374
 H        -0.589584         0.394918        -0.998333
 H        -0.368928        -0.999635         0.179563
 H         2.484740         2.347064        -0.689145
 H         1.916416         2.018079         0.908156
 H         5.138182         1.281674         1.066257
 H         3.890158         0.029289        -1.747777
 H         4.362358        -1.348394        -0.423700
 H         2.316691        -2.799486        -1.057678
 H         1.954415        -0.846894         1.933894
