19
Iteration:  4313
 C        -0.053461         0.178425        -0.152737
 C         1.463865         0.168935        -0.105826
 C         2.355913         1.342365        -0.093085
 C         3.348772         0.404923         0.523037
 O         4.495659         0.845768         1.189523
 C         3.763100        -0.671516        -0.487589
 C         2.293871        -1.071448        -0.379667
 O         1.666146        -2.189265        -0.899835
 C         2.157400        -0.459055         1.067337
 H        -0.267694         1.090784         0.392727
 H        -0.391018         0.357285        -1.175510
 H        -0.367541        -0.810019         0.366243
 H         2.790464         1.831254        -1.032935
 H         1.854525         2.036121         0.562065
 H         4.541986         0.621302         2.177034
 H         4.093038        -0.430611        -1.506135
 H         4.465446        -1.403213         0.005878
 H         1.194410        -1.934931        -1.697202
 H         1.857380        -1.141478         1.928199
