19
Iteration:  4419
 C        -0.064561         0.327992        -0.271862
 C         1.381883         0.222541         0.042766
 C         2.362928         1.320419         0.072364
 C         3.399646         0.368899         0.593242
 O         4.513216         1.029293         1.189839
 C         3.701455        -0.650767        -0.565033
 C         2.231497        -1.155792        -0.433590
 O         1.751502        -2.334984        -0.893159
 C         2.168760        -0.581194         1.030702
 H        -0.810811         0.848841         0.368796
 H        -0.186776         0.660607        -1.305975
 H        -0.305616        -0.704892        -0.291561
 H         2.504508         1.874639        -0.847329
 H         2.055946         2.022772         0.854440
 H         5.269759         0.313545         1.240799
 H         4.096685        -0.267587        -1.565269
 H         4.360872        -1.432111        -0.214414
 H         1.047673        -2.089066        -1.504002
 H         1.867018        -1.127404         2.016601
