19
Iteration:  3930charge 0 multiplicity 1
 C        -0.097169         0.237845        -0.281644
 C         1.435362         0.157976        -0.088190
 C         2.368267         1.399158        -0.146639
 C         3.422484         0.434220         0.536698
 O         4.518212         0.614211         1.303200
 C         3.716903        -0.482536        -0.703726
 C         2.294950        -1.045354        -0.353347
 O         1.631380        -2.270350        -0.706146
 C         2.210538        -0.447515         1.089485
 H        -0.722844         0.903599         0.386985
 H        -0.363220         0.244631        -1.350501
 H        -0.499650        -0.801478        -0.113106
 H         2.668290         1.959219        -1.127343
 H         2.000725         2.100980         0.656266
 H         4.182702         1.126279         2.150028
 H         3.617536         0.018937        -1.620686
 H         4.624647        -1.122126        -0.584550
 H         2.167762        -2.654917        -1.436539
 H         2.028260        -0.899638         1.980104
