19
Iteration:   858charge 0 multiplicity 1
 C        -0.038516         0.111024        -0.076699
 C         1.442985         0.219663         0.004461
 C         2.347970         1.434957         0.220520
 C         3.406846         0.366932         0.512822
 O         4.365346         0.820387         1.315320
 C         3.730738        -0.443492        -0.851395
 C         2.325203        -1.072024        -0.508368
 O         1.597940        -2.237030        -0.916076
 C         2.285383        -0.622193         0.906262
 H        -0.603068         0.713702         0.639478
 H        -0.332714         0.475920        -1.047150
 H        -0.304614        -0.955069         0.077997
 H         2.606588         2.208084        -0.553990
 H         2.051826         2.012237         1.038445
 H         5.281219         0.572718         1.174304
 H         3.815018         0.022186        -1.873763
 H         4.678265        -1.002690        -0.730744
 H         1.745563        -2.993476        -0.351316
 H         1.944679        -0.894322         1.860729
