19
Iteration:  1481
 C        -0.123125         0.358814        -0.212238
 C         1.360650         0.126526        -0.039177
 C         2.231511         1.443618         0.053809
 C         3.405216         0.407055         0.589834
 O         4.678403         0.744400         1.181150
 C         3.614605        -0.576020        -0.597170
 C         2.216684        -1.061289        -0.446515
 O         1.885757        -2.375381        -0.913986
 C         2.225636        -0.522672         1.024660
 H        -0.404955         1.198874         0.545194
 H        -0.350696         0.598127        -1.345602
 H        -0.720132        -0.621914         0.163342
 H         2.437219         2.018619        -0.793029
 H         1.694427         2.135060         0.774050
 H         4.289712         1.100736         2.058050
 H         4.120212        -0.315756        -1.588826
 H         4.273300        -1.354471        -0.134098
 H         0.947418        -2.375135        -1.173185
 H         1.843735        -0.981358         1.851327
