19
Iteration:  2979
 C        -0.043216         0.250482        -0.106813
 C         1.459445         0.267051        -0.078808
 C         2.396798         1.468714        -0.110307
 C         3.432024         0.418168         0.483908
 O         4.422740         0.766028         1.374676
 C         3.689441        -0.543062        -0.734066
 C         2.322606        -1.131502        -0.450006
 O         1.663472        -2.379710        -0.748784
 C         2.224518        -0.535751         0.953765
 H        -0.441664         0.884222         0.686193
 H        -0.384497         0.470812        -1.147640
 H        -0.533653        -0.719224         0.149014
 H         2.703720         1.913125        -1.113006
 H         1.894355         2.188537         0.493742
 H         4.092414         0.641136         2.336352
 H         3.688153        -0.060448        -1.705562
 H         4.578377        -1.065209        -0.338803
 H         1.462782        -2.360217        -1.693048
 H         2.097824        -0.979882         1.947294
