19
Iteration:  4347charge 0 multiplicity 1
 C        -0.147956         0.133084        -0.169513
 C         1.390003         0.337243        -0.078515
 C         2.474327         1.442460        -0.128618
 C         3.470889         0.450317         0.514714
 O         4.484633         0.738939         1.429810
 C         3.673113        -0.595446        -0.675297
 C         2.252641        -1.073825        -0.458336
 O         1.609703        -2.350308        -0.736653
 C         2.292688        -0.487829         0.909772
 H        -0.695450         0.624915         0.636904
 H        -0.577831         0.443560        -1.134445
 H        -0.462420        -1.002544        -0.091252
 H         3.048262         1.882429        -0.982473
 H         2.165354         2.259824         0.517269
 H         4.045275         1.531891         1.947346
 H         3.822503        -0.242386        -1.710851
 H         4.526429        -1.295153        -0.352926
 H         1.750555        -2.431043        -1.688177
 H         2.310740        -1.037180         1.923351
