19
Iteration:  3398
 C        -0.037717         0.081174        -0.245942
 C         1.491626         0.253435        -0.062330
 C         2.388448         1.400440        -0.049704
 C         3.376745         0.370372         0.584375
 O         4.525689         0.802501         1.147180
 C         3.717815        -0.685387        -0.509423
 C         2.270952        -1.086388        -0.346843
 O         1.650761        -2.158185        -0.945179
 C         2.194284        -0.509074         1.119822
 H        -0.632161         0.660209         0.416699
 H        -0.375985         0.420393        -1.267901
 H        -0.381699        -0.917549        -0.027291
 H         2.523217         1.822398        -1.085751
 H         1.992096         2.242206         0.702911
 H         4.304455         1.320987         2.014873
 H         4.051182        -0.199141        -1.476361
 H         4.404686        -1.513250        -0.246744
 H         0.773897        -1.778907        -1.221212
 H         2.012638        -0.836440         2.191143
