19
Iteration:  4605charge 0 multiplicity 1
 C        -0.111121         0.029137        -0.235886
 C         1.438176         0.228640        -0.047273
 C         2.342826         1.413384         0.004121
 C         3.435543         0.397732         0.484532
 O         4.583754         0.747074         1.321570
 C         3.751660        -0.586246        -0.595838
 C         2.265032        -1.000680        -0.483367
 O         1.583557        -2.174880        -0.790966
 C         2.245341        -0.554485         0.974711
 H        -0.689120         0.289967         0.696038
 H        -0.573075         0.605680        -1.056805
 H        -0.236276        -1.047636        -0.470877
 H         2.563582         2.048125        -0.853246
 H         2.007559         2.192372         0.826889
 H         4.262154         1.685396         1.638614
 H         4.296872        -0.239527        -1.506234
 H         4.389103        -1.306907        -0.036939
 H         1.217470        -2.135299        -1.683888
 H         1.992548        -0.952731         1.865615
