19
Iteration:  3982
 C        -0.150636         0.196052        -0.260668
 C         1.397535         0.204596        -0.061140
 C         2.410408         1.296620        -0.060657
 C         3.496050         0.314425         0.582161
 O         4.575415         0.964784         1.200441
 C         3.758870        -0.727766        -0.511283
 C         2.234118        -1.080216        -0.330028
 O         1.604469        -2.217586        -0.899625
 C         2.153524        -0.521925         1.031425
 H        -0.620115         0.678716         0.639627
 H        -0.594804         0.691182        -1.146871
 H        -0.593961        -0.734029        -0.223887
 H         2.843651         1.833403        -0.951390
 H         2.236971         1.969182         0.730176
 H         4.189952         1.596497         1.904670
 H         4.142090        -0.401890        -1.507577
 H         4.371930        -1.519821         0.000138
 H         1.959729        -2.134117        -1.828953
 H         1.901200        -0.689854         2.009267
