19
Iteration:  3729charge 0 multiplicity 1
 C        -0.072332         0.295666        -0.346394
 C         1.395700         0.131934         0.004083
 C         2.334866         1.360414        -0.031008
 C         3.459922         0.450153         0.525526
 O         4.626609         0.799065         1.199290
 C         3.594277        -0.587667        -0.523104
 C         2.159079        -1.050461        -0.368442
 O         1.672359        -2.291920        -0.888205
 C         2.236479        -0.559200         1.149899
 H        -0.707674         1.162166         0.063102
 H        -0.206614         0.377811        -1.500102
 H        -0.541812        -0.584714         0.063093
 H         2.487292         1.888383        -1.045559
 H         2.071727         2.033772         0.722153
 H         4.468762         1.365653         1.942322
 H         4.036727        -0.321455        -1.485991
 H         4.222898        -1.403234        -0.113313
 H         2.445436        -2.583782        -1.395142
 H         1.956076        -1.113385         1.964364
