19
Iteration:  3466charge 0 multiplicity 1
 C        -0.033610         0.497865        -0.150439
 C         1.397414         0.121418        -0.095944
 C         2.293447         1.335805        -0.103372
 C         3.389851         0.371709         0.513308
 O         4.509354         0.775952         1.289314
 C         3.639425        -0.632487        -0.686472
 C         2.250208        -1.125065        -0.322566
 O         1.924007        -2.364432        -0.874647
 C         2.128771        -0.519337         1.044161
 H        -0.300838         0.948856         0.829805
 H        -0.486675         1.015242        -1.020348
 H        -0.530122        -0.418718         0.005318
 H         2.545942         1.854209        -1.041818
 H         1.975722         2.112216         0.788966
 H         4.232958         1.584640         1.783423
 H         3.917003        -0.051743        -1.583868
 H         4.384035        -1.424338        -0.424205
 H         1.003986        -2.369087        -1.158400
 H         1.863823        -1.020243         1.916678
