19
Iteration:  1851charge 0 multiplicity 1
 C        -0.067212         0.179704        -0.374074
 C         1.399122         0.122316        -0.046312
 C         2.293623         1.314745         0.104361
 C         3.462711         0.374243         0.609405
 O         4.673987         0.909536         1.093347
 C         3.611450        -0.730769        -0.465397
 C         2.220850        -1.061990        -0.305021
 O         1.699409        -2.124040        -1.028057
 C         2.195598        -0.511136         1.129595
 H        -0.612537         0.744724         0.487857
 H        -0.044852         0.696589        -1.316283
 H        -0.532859        -0.860373        -0.409360
 H         2.500848         1.940925        -0.790542
 H         2.016431         2.079658         0.733708
 H         4.741050         0.707535         2.043014
 H         4.044662        -0.369809        -1.414140
 H         4.227236        -1.538409        -0.059555
 H         0.771454        -2.264145        -1.127005
 H         1.842832        -0.518825         2.085169
