19
Iteration:  4496charge 0 multiplicity 1
 C        -0.081499         0.095289        -0.090706
 C         1.398204         0.228023        -0.183518
 C         2.404973         1.373763        -0.084987
 C         3.416463         0.349854         0.475794
 O         4.424215         0.746104         1.382572
 C         3.791836        -0.580628        -0.722332
 C         2.275700        -0.957742        -0.423235
 O         1.704336        -2.186344        -0.762577
 C         2.201343        -0.532741         0.985747
 H        -0.493823         0.972605         0.493409
 H        -0.695786         0.065210        -0.997734
 H        -0.308395        -0.742163         0.575927
 H         2.807553         1.858923        -0.973007
 H         2.126177         2.117903         0.650971
 H         4.075531         1.323179         2.068707
 H         4.244736        -0.221922        -1.754677
 H         4.338679        -1.534631        -0.569681
 H         1.498234        -2.141644        -1.727329
 H         1.781744        -0.936613         1.952374
