19
Iteration:  1183charge 0 multiplicity 1
 C        -0.148050         0.449171        -0.308627
 C         1.399146         0.047509         0.127965
 C         2.251525         1.224022         0.094599
 C         3.438542         0.370378         0.470232
 O         4.450919         0.915205         1.373509
 C         3.671487        -0.497933        -0.814775
 C         2.260194        -1.159032        -0.353333
 O         1.719872        -2.356623        -0.812639
 C         2.444326        -0.613450         1.022648
 H        -0.581157         1.317433         0.180977
 H        -0.028872         0.804974        -1.282871
 H        -0.866259        -0.373264        -0.384313
 H         2.129359         1.780170        -1.011404
 H         2.011663         1.968702         1.000761
 H         5.047357         1.500430         0.973199
 H         3.800264         0.111161        -1.716406
 H         4.535919        -1.195587        -0.771235
 H         1.181564        -2.054924        -1.602579
 H         2.544974        -1.230727         1.911637
