19
Iteration:  4507
 C        -0.178641         0.193523        -0.103601
 C         1.382253         0.174022        -0.135977
 C         2.417642         1.398714        -0.039034
 C         3.453664         0.308633         0.575233
 O         4.476070         0.739209         1.311043
 C         3.816629        -0.578362        -0.701727
 C         2.275380        -1.018977        -0.487448
 O         1.774879        -2.240179        -0.762557
 C         2.109087        -0.463330         0.968232
 H        -0.442172         1.059466         0.572565
 H        -0.774837         0.191824        -1.029578
 H        -0.515243        -0.747951         0.354450
 H         2.619846         1.880859        -0.994897
 H         2.127054         2.108409         0.724713
 H         4.108198         1.589095         1.812380
 H         4.015164         0.019154        -1.718383
 H         4.530335        -1.351940        -0.324138
 H         1.483419        -2.231079        -1.686327
 H         1.841107        -1.250642         1.726273
