19
Iteration:  2749charge 0 multiplicity 1
 C        -0.023277         0.117381        -0.243625
 C         1.487020         0.137330         0.010315
 C         2.369291         1.417342        -0.039105
 C         3.394936         0.412116         0.557303
 O         4.470027         0.996422         1.290816
 C         3.696101        -0.648465        -0.616505
 C         2.270073        -1.076405        -0.415814
 O         1.563204        -2.205838        -0.903800
 C         2.293571        -0.635198         1.074296
 H        -0.428731         0.912461         0.312305
 H        -0.251438         0.143654        -1.327848
 H        -0.607220        -0.712908         0.103480
 H         2.639972         1.699652        -1.089499
 H         2.033532         2.012266         0.735499
 H         5.189364         0.246870         1.430824
 H         3.971409        -0.119994        -1.521870
 H         4.288917        -1.391838        -0.072352
 H         1.205067        -1.715257        -1.668098
 H         1.885253        -0.978550         2.104528
