19
Iteration:   446
 C        -0.113865         0.110460        -0.133996
 C         1.393854         0.138156         0.018742
 C         2.322745         1.384735        -0.076723
 C         3.451562         0.369530         0.473864
 O         4.546334         0.761110         1.331423
 C         3.593044        -0.556552        -0.691499
 C         2.256263        -1.072556        -0.317757
 O         1.724053        -2.129494        -1.011423
 C         2.222811        -0.415121         1.093699
 H        -0.638165         0.506085         0.755235
 H        -0.549513         0.871608        -0.826243
 H        -0.405629        -0.954721        -0.302829
 H         2.384839         1.808410        -1.059776
 H         1.969486         1.972303         0.839188
 H         5.399444         0.343365         0.992525
 H         3.716299        -0.070237        -1.603760
 H         4.524182        -1.168014        -0.668940
 H         2.220018        -2.904811        -0.696891
 H         1.846009        -0.579189         2.171946
