19
Iteration:  2531
 C        -0.112364         0.256403        -0.240350
 C         1.352515         0.216513        -0.028339
 C         2.256479         1.441269         0.050814
 C         3.435447         0.421662         0.538686
 O         4.588366         0.797010         1.289918
 C         3.675591        -0.503448        -0.720808
 C         2.290448        -1.098934        -0.415983
 O         1.746899        -2.384733        -0.792586
 C         2.180448        -0.572776         0.975943
 H        -0.380388         1.249212         0.200553
 H        -0.489404         0.465468        -1.252751
 H        -0.690270        -0.534334         0.268854
 H         2.399160         2.108684        -0.729090
 H         1.798149         2.101176         0.797678
 H         4.780302         0.242348         1.997082
 H         3.951523         0.015685        -1.683926
 H         4.537368        -1.124961        -0.400609
 H         2.122644        -2.406493        -1.695740
 H         1.978245        -1.217847         1.742636
