19
Iteration:  2838
 C        -0.113141         0.284079        -0.156662
 C         1.419974         0.222678        -0.122038
 C         2.365720         1.339483        -0.068956
 C         3.404801         0.462652         0.483719
 O         4.355070         0.711175         1.463311
 C         3.686156        -0.545920        -0.831725
 C         2.304540        -1.099172        -0.405533
 O         1.756145        -2.291821        -0.681616
 C         2.282370        -0.585948         0.965737
 H        -0.404848         0.762714         0.736252
 H        -0.370478         0.904984        -1.039789
 H        -0.569307        -0.720861        -0.243673
 H         2.572617         2.034426        -0.963846
 H         2.028356         1.910423         0.755501
 H         5.135097         1.232767         1.020524
 H         3.821918         0.184149        -1.655259
 H         4.554997        -1.230909        -0.626504
 H         1.489934        -2.433214        -1.607390
 H         2.066010        -0.870760         1.875341
