19
Iteration:  2068
 C        -0.062537         0.298859        -0.247415
 C         1.411337         0.187719        -0.098140
 C         2.337542         1.446696        -0.076978
 C         3.398202         0.443445         0.517374
 O         4.542162         0.605623         1.297740
 C         3.675586        -0.561339        -0.622553
 C         2.206399        -1.052401        -0.386454
 O         1.773620        -2.322142        -0.755400
 C         2.153514        -0.447132         0.986236
 H        -0.728541         0.824506         0.572745
 H        -0.366059         1.044694        -1.029831
 H        -0.519096        -0.672031        -0.516173
 H         2.596307         1.909236        -0.993119
 H         1.730760         2.084434         0.622639
 H         4.483723         1.154371         2.092025
 H         3.985899        -0.236261        -1.661828
 H         4.280249        -1.383747        -0.249705
 H         2.445671        -2.832882        -1.284398
 H         1.913376        -0.797815         2.025254
