19
Iteration:  2988charge 0 multiplicity 1
 C        -0.057534         0.246747        -0.145261
 C         1.437283         0.212247        -0.107052
 C         2.428507         1.415279        -0.058783
 C         3.382606         0.475011         0.500637
 O         4.432913         0.728758         1.382410
 C         3.664970        -0.520600        -0.798479
 C         2.233142        -1.131722        -0.384029
 O         1.709020        -2.358721        -0.712023
 C         2.269556        -0.526424         0.926150
 H        -0.440829         0.999491         0.590122
 H        -0.502849         0.679391        -0.999931
 H        -0.324881        -0.766111         0.026048
 H         2.776485         1.796912        -1.016121
 H         2.071088         2.288068         0.585869
 H         4.019756         0.717670         2.333655
 H         3.819117        -0.112353        -1.764459
 H         4.610855        -1.073618        -0.732212
 H         1.724933        -2.349706        -1.675661
 H         1.986361        -0.727674         1.852751
