19
Iteration:  2425charge 0 multiplicity 1
 C        -0.178563         0.161077        -0.173198
 C         1.385365         0.203791        -0.123450
 C         2.327672         1.442324        -0.020498
 C         3.472925         0.409876         0.527885
 O         4.495186         0.858384         1.355851
 C         3.692096        -0.677601        -0.610287
 C         2.278691        -1.085338        -0.362823
 O         1.772442        -2.263887        -0.905351
 C         2.219746        -0.521606         1.038011
 H        -0.655976         0.625384         0.700669
 H        -0.348021         0.667952        -1.069313
 H        -0.640079        -0.883503        -0.373891
 H         2.748508         1.887128        -0.957769
 H         2.202526         2.227028         0.762501
 H         5.175149         0.915189         0.738346
 H         4.023496        -0.365539        -1.566040
 H         4.312065        -1.555962        -0.238740
 H         0.968497        -2.013154        -1.389594
 H         1.872361        -0.779200         2.003484
