19
Iteration:  1619charge 0 multiplicity 1
 C        -0.175875         0.382913        -0.134974
 C         1.322980         0.236382        -0.075319
 C         2.314457         1.391876        -0.125103
 C         3.381616         0.387585         0.545279
 O         4.541019         0.626163         1.307916
 C         3.700249        -0.577362        -0.542964
 C         2.298305        -1.119692        -0.350812
 O         1.908247        -2.359130        -0.941698
 C         2.176428        -0.453185         1.011758
 H        -0.561113         1.001776         0.809670
 H        -0.711087         0.706181        -1.074346
 H        -0.698849        -0.537889         0.140145
 H         2.396902         1.921178        -1.133547
 H         2.076103         2.159635         0.583869
 H         4.697667         1.497345         1.586113
 H         3.991525        -0.258451        -1.567813
 H         4.445204        -1.337913        -0.237141
 H         1.376377        -2.162325        -1.733775
 H         1.904758        -0.831645         1.951980
