19
Iteration:  2276
 C        -0.055940         0.231826        -0.160750
 C         1.425278         0.114789        -0.022044
 C         2.428269         1.312119        -0.182426
 C         3.391642         0.393860         0.535269
 O         4.424130         0.962702         1.273751
 C         3.704489        -0.672905        -0.566196
 C         2.248738        -1.095252        -0.366112
 O         1.734554        -2.176440        -0.998883
 C         2.251977        -0.560180         1.106669
 H        -0.507507         0.750789         0.653982
 H        -0.336483         0.927725        -1.002778
 H        -0.408403        -0.761738        -0.243355
 H         2.487941         1.869384        -1.139893
 H         2.343271         2.110149         0.709812
 H         4.357948         0.567552         2.144745
 H         4.067352        -0.423945        -1.599122
 H         4.284015        -1.510564        -0.222441
 H         0.868942        -2.404048        -0.675487
 H         1.889013        -0.962183         1.952612
