19
Iteration:  2022charge 0 multiplicity 1
 C        -0.059750         0.188705        -0.414792
 C         1.394349         0.153613        -0.042966
 C         2.433709         1.288031         0.003285
 C         3.478087         0.323532         0.526786
 O         4.573525         0.918937         1.330148
 C         3.701683        -0.644510        -0.642230
 C         2.285976        -1.044814        -0.351367
 O         1.561517        -2.210785        -0.808092
 C         2.235964        -0.567381         1.061017
 H        -0.697156         0.530082         0.464493
 H        -0.379704         0.980178        -1.185039
 H        -0.380909        -0.900010        -0.688327
 H         2.627172         1.843060        -0.857192
 H         2.246717         1.935902         0.911959
 H         4.167754         1.739526         1.783745
 H         3.896727        -0.157737        -1.578529
 H         4.404155        -1.445372        -0.302004
 H         0.809557        -1.880056        -1.362623
 H         1.826615        -0.919894         1.906825
