19
Iteration:  4258
 C        -0.002962         0.307165        -0.293847
 C         1.466038         0.167884        -0.035237
 C         2.403067         1.353378        -0.029683
 C         3.361205         0.304241         0.514659
 O         4.364000         0.959074         1.255790
 C         3.667211        -0.639041        -0.598374
 C         2.256445        -1.058047        -0.346965
 O         1.724449        -2.245883        -0.886545
 C         2.280303        -0.636471         1.102548
 H        -0.405542         1.178831         0.281795
 H        -0.187213         0.474027        -1.367496
 H        -0.722407        -0.542508         0.047097
 H         2.729535         1.897951        -0.952824
 H         2.053180         1.991341         0.761971
 H         5.316434         0.547003         1.239790
 H         3.944470        -0.280965        -1.632399
 H         4.231420        -1.605381        -0.354829
 H         0.784042        -2.274771        -0.650337
 H         1.977892        -0.954487         2.080297
