19
Iteration:  3568
 C        -0.048667         0.136005        -0.299125
 C         1.446982         0.179712         0.010049
 C         2.351250         1.331146        -0.044518
 C         3.466855         0.393052         0.555145
 O         4.544883         0.823290         1.270389
 C         3.675510        -0.607138        -0.684869
 C         2.264920        -1.004389        -0.373843
 O         1.573144        -2.154440        -0.787196
 C         2.229979        -0.632904         1.050988
 H        -0.514761         1.035166         0.205869
 H        -0.295550         0.348196        -1.336020
 H        -0.544463        -0.820325         0.063617
 H         2.659480         1.812983        -0.983464
 H         2.081588         2.196571         0.760722
 H         4.321596         1.665929         1.728577
 H         4.050993        -0.363346        -1.712827
 H         4.311436        -1.375651        -0.231093
 H         1.792234        -2.409451        -1.713419
 H         1.919743        -0.911998         2.045336
