19
Iteration:  4398charge 0 multiplicity 1
 C        -0.132827         0.315923        -0.329875
 C         1.397197         0.152506        -0.051081
 C         2.332557         1.405087         0.054663
 C         3.424945         0.477083         0.513103
 O         4.506024         0.876253         1.309813
 C         3.721485        -0.615641        -0.626912
 C         2.236157        -1.125560        -0.376008
 O         1.737976        -2.422927        -0.828548
 C         2.230866        -0.588918         1.076516
 H        -0.500769         0.883693         0.563609
 H        -0.220571         1.095867        -1.089549
 H        -0.919957        -0.400082        -0.521838
 H         2.486713         2.086024        -0.838726
 H         2.116725         2.033302         0.922787
 H         5.210595         1.075383         0.684158
 H         4.081665        -0.263570        -1.611466
 H         4.414129        -1.384404        -0.338536
 H         1.185115        -2.094725        -1.581838
 H         2.031594        -1.113373         2.114238
