19
Iteration:  4516charge 0 multiplicity 1
 C        -0.202651         0.242381        -0.109725
 C         1.346380         0.219002        -0.088748
 C         2.403168         1.358894        -0.046861
 C         3.393814         0.353726         0.538372
 O         4.549553         0.760785         1.307475
 C         3.712751        -0.567749        -0.594645
 C         2.314975        -1.043601        -0.509088
 O         1.798818        -2.313958        -0.792976
 C         2.155282        -0.515476         0.935067
 H        -0.546164         1.108733         0.547843
 H        -0.487257         0.500013        -1.150411
 H        -0.583292        -0.667430         0.265072
 H         2.625006         1.958737        -0.891693
 H         2.051400         2.079071         0.761830
 H         4.308441         1.675104         1.734009
 H         4.061791         0.051575        -1.508391
 H         4.524448        -1.249293        -0.390310
 H         1.433931        -2.408864        -1.681610
 H         1.872902        -1.344511         1.709962
