19
Iteration:   578
 C        -0.111634         0.090294         0.006024
 C         1.383074         0.150246        -0.010969
 C         2.319969         1.484679        -0.011548
 C         3.421906         0.490456         0.417239
 O         4.503556         0.776538         1.356527
 C         3.747804        -0.593355        -0.672417
 C         2.276773        -0.972681        -0.587517
 O         1.612850        -2.277567        -0.922069
 C         2.293991        -0.440373         0.946799
 H        -0.486561         0.699394         0.843735
 H        -0.510411         0.535219        -0.969596
 H        -0.552048        -0.985706         0.181830
 H         2.398651         2.063269        -0.932449
 H         2.021561         2.268904         0.851719
 H         4.564158        -0.119647         1.844998
 H         4.220498        -0.379576        -1.670515
 H         4.463866        -1.329430        -0.028803
 H         2.353491        -2.880252        -0.784210
 H         1.989565        -0.928207         1.768160
