19
Iteration:  2646charge 0 multiplicity 1
 C        -0.139027         0.251817        -0.142826
 C         1.430749         0.176059         0.002288
 C         2.361740         1.322575        -0.123681
 C         3.449739         0.425771         0.488107
 O         4.516867         0.867915         1.374646
 C         3.675839        -0.659398        -0.593487
 C         2.210132        -1.021986        -0.396226
 O         1.760375        -2.325012        -0.932408
 C         2.201434        -0.577439         1.033715
 H        -0.533789         0.766171         0.722642
 H        -0.425141         0.896367        -0.914531
 H        -0.526478        -0.725226        -0.267106
 H         2.516831         1.885584        -1.004710
 H         2.135089         2.054471         0.620123
 H         4.582836         1.788528         1.509244
 H         4.029234        -0.189893        -1.494485
 H         4.235809        -1.523725        -0.345546
 H         1.606900        -2.275128        -1.914466
 H         1.971937        -0.952618         1.921983
