19
Iteration:  1615
 C        -0.167701         0.410290        -0.118208
 C         1.303529         0.254977        -0.081786
 C         2.292455         1.412671        -0.146588
 C         3.380117         0.406610         0.575969
 O         4.572610         0.633568         1.317623
 C         3.691091        -0.598120        -0.555196
 C         2.259796        -1.191501        -0.383404
 O         1.911955        -2.379368        -0.951283
 C         2.188114        -0.443225         1.012287
 H        -0.503043         0.939327         0.770044
 H        -0.672644         0.631511        -1.076710
 H        -0.603419        -0.593597         0.126494
 H         2.436548         1.972394        -1.058657
 H         2.157534         2.170423         0.642576
 H         4.581932         1.623043         1.574600
 H         4.011382        -0.118374        -1.511195
 H         4.379904        -1.379872        -0.151665
 H         1.504565        -2.107867        -1.813631
 H         1.907610        -0.813343         2.116794
