19
Iteration:  3678
 C        -0.003745         0.086390        -0.215558
 C         1.432314         0.189752        -0.043527
 C         2.429005         1.416227        -0.094050
 C         3.449479         0.432599         0.524894
 O         4.506817         0.891162         1.362686
 C         3.714690        -0.725620        -0.652213
 C         2.175028        -1.085571        -0.380636
 O         1.581577        -2.191997        -0.962135
 C         2.269897        -0.501128         1.030961
 H        -0.530139         0.555112         0.622543
 H        -0.250988         0.661346        -1.060756
 H        -0.404220        -0.866700        -0.103671
 H         2.970620         1.721120        -0.941572
 H         2.003893         2.299809         0.544215
 H         4.225697         1.644553         1.833068
 H         4.051217        -0.435290        -1.686804
 H         4.298633        -1.475085        -0.105712
 H         0.932413        -2.595249        -0.376578
 H         2.004184        -1.017267         1.938122
