19
Iteration:  2132
 C        -0.040929         0.247428        -0.187466
 C         1.434865         0.133458        -0.063884
 C         2.411472         1.280571        -0.087178
 C         3.467877         0.396807         0.542640
 O         4.451737         0.920487         1.329108
 C         3.828316        -0.675941        -0.506230
 C         2.305000        -1.090312        -0.410573
 O         1.503986        -2.161346        -1.032724
 C         2.230062        -0.573503         1.014588
 H        -0.462145         1.230724         0.272414
 H        -0.368101         0.176815        -1.298168
 H        -0.537436        -0.565613         0.433046
 H         2.606836         1.901665        -0.963611
 H         1.941653         2.078034         0.617845
 H         4.012034         1.714107         1.551856
 H         4.316926        -0.401590        -1.431823
 H         4.418091        -1.517781        -0.120630
 H         1.398834        -2.856670        -0.343942
 H         2.054869        -1.097554         2.026131
