19
Iteration:  3685
 C        -0.019125         0.070292        -0.220555
 C         1.438435         0.202563        -0.094297
 C         2.433323         1.342089        -0.059336
 C         3.454591         0.380656         0.512747
 O         4.509831         0.875137         1.307844
 C         3.729196        -0.681584        -0.617411
 C         2.206235        -1.028240        -0.317541
 O         1.564526        -2.154155        -0.971225
 C         2.256186        -0.504309         1.071856
 H        -0.521529         0.711393         0.583808
 H        -0.376851         0.609526        -1.207025
 H        -0.384349        -0.984609        -0.167405
 H         2.861745         1.895860        -0.970307
 H         1.974417         2.016645         0.584867
 H         4.216776         1.642213         1.738289
 H         4.117801        -0.380603        -1.593703
 H         4.357207        -1.456887        -0.173200
 H         1.089834        -2.686497        -0.331590
 H         1.805694        -0.849423         1.955709
