19
Iteration:  2906charge 0 multiplicity 1
 C        -0.014794         0.180562        -0.237155
 C         1.442287         0.087844         0.035261
 C         2.355551         1.377484        -0.029010
 C         3.372800         0.412804         0.595481
 O         4.579575         0.864383         1.198759
 C         3.640052        -0.629517        -0.559405
 C         2.257780        -1.157499        -0.412208
 O         1.639124        -2.178737        -0.961715
 C         2.201777        -0.545867         1.149681
 H        -0.613131         0.825329         0.348556
 H        -0.141086         0.308006        -1.349279
 H        -0.502012        -0.832083        -0.032108
 H         2.650088         1.885477        -0.990024
 H         2.168030         2.145462         0.788305
 H         4.548284         1.800644         1.415979
 H         3.915449        -0.189770        -1.580613
 H         4.376124        -1.373250        -0.181463
 H         1.493146        -1.846473        -1.857682
 H         1.854877        -0.981622         2.254602
