19
Iteration:  1119charge 0 multiplicity 1
 C        -0.179515        -0.074796        -0.036264
 C         1.331504         0.200285        -0.142089
 C         2.422859         1.487477        -0.045381
 C         3.507938         0.433619         0.515606
 O         4.532780         0.788535         1.437683
 C         3.687795        -0.642234        -0.664227
 C         2.254879        -1.004434        -0.456770
 O         1.655401        -2.152670        -0.858710
 C         2.240324        -0.455098         0.912829
 H        -0.680586         0.586217         0.704735
 H        -0.716693         0.166434        -0.940290
 H        -0.292502        -1.202225         0.173620
 H         2.530178         1.944955        -0.977881
 H         2.041446         2.248994         0.686430
 H         5.350535         0.832818         0.895062
 H         4.058742        -0.200225        -1.593263
 H         4.238328        -1.430929        -0.134191
 H         1.707645        -2.125802        -1.853212
 H         1.874020        -0.898054         1.896467
