19
Iteration:  1215charge 0 multiplicity 1
 C        -0.012171         0.206395        -0.148345
 C         1.471283         0.164630        -0.033660
 C         2.324274         1.344950         0.055463
 C         3.421757         0.382107         0.528855
 O         4.432709         0.894524         1.329253
 C         3.687417        -0.601353        -0.751704
 C         2.289953        -1.073469        -0.466937
 O         1.667645        -2.225505        -0.770435
 C         2.250056        -0.635710         0.985887
 H        -0.512278         0.768846         0.649051
 H        -0.301600         0.724555        -1.064123
 H        -0.462778        -0.787094        -0.230706
 H         2.567552         1.884743        -0.931680
 H         2.007038         1.984795         0.948205
 H         4.732008         1.735722         0.836733
 H         3.862491        -0.040060        -1.667936
 H         4.358647        -1.392051        -0.397403
 H         1.310504        -2.203573        -1.670100
 H         1.956206        -1.405929         1.682303
