19
Iteration:  4390
 C        -0.114135         0.399581        -0.286524
 C         1.399383         0.106637        -0.115826
 C         2.317636         1.373464         0.024794
 C         3.382058         0.422143         0.541795
 O         4.492632         0.814571         1.336978
 C         3.677219        -0.605497        -0.692135
 C         2.277088        -1.147768        -0.361840
 O         1.763960        -2.323825        -0.762577
 C         2.268642        -0.537447         1.061683
 H        -0.572366         0.761380         0.632833
 H        -0.266587         1.030207        -1.173208
 H        -0.507257        -0.673723        -0.561469
 H         2.450891         2.004849        -0.945772
 H         1.835738         1.956813         0.811790
 H         5.078328         1.343717         0.715705
 H         3.911686        -0.281802        -1.678505
 H         4.355211        -1.387068        -0.247930
 H         1.307828        -2.113656        -1.608133
 H         2.121573        -1.204985         1.933223
