19
Iteration:  3495
 C        -0.193404         0.344184        -0.202568
 C         1.377526         0.152903        -0.027496
 C         2.392871         1.404894        -0.041872
 C         3.382429         0.435528         0.526573
 O         4.584600         0.762020         1.216626
 C         3.707799        -0.595958        -0.565264
 C         2.207816        -1.111856        -0.409905
 O         1.825821        -2.354252        -0.871653
 C         2.211749        -0.534130         1.006413
 H        -0.654273         1.032640         0.463816
 H        -0.612760         0.654593        -1.166153
 H        -0.554373        -0.641568         0.257309
 H         2.700835         1.810277        -1.057535
 H         2.224006         2.159194         0.604818
 H         4.247571         1.375337         1.989034
 H         4.298385        -0.158855        -1.378405
 H         4.266307        -1.402486        -0.068682
 H         0.988109        -2.145666        -1.360920
 H         1.812550        -0.936948         1.879413
