19
Iteration:  4264
 C        -0.028774         0.293957        -0.293763
 C         1.449625         0.158600        -0.010104
 C         2.375678         1.307004        -0.035582
 C         3.415066         0.279402         0.554323
 O         4.397310         1.012458         1.258478
 C         3.599338        -0.686897        -0.622409
 C         2.261949        -1.088291        -0.365743
 O         1.757794        -2.227268        -0.919020
 C         2.233381        -0.562875         1.127435
 H        -0.283181         1.247111         0.194525
 H        -0.134025         0.495259        -1.377156
 H        -0.572608        -0.511475         0.077652
 H         2.671725         1.818333        -0.961432
 H         2.315892         2.068858         0.806149
 H         5.189599         0.529013         1.382025
 H         3.954306        -0.330873        -1.568413
 H         4.108065        -1.610991        -0.453220
 H         0.782493        -2.141090        -0.752275
 H         2.121535        -1.105689         2.088797
