19
Iteration:   980charge 0 multiplicity 1
 C        -0.079853         0.065124        -0.187274
 C         1.438394         0.202977         0.073538
 C         2.360304         1.413668         0.029875
 C         3.387866         0.374234         0.555299
 O         4.452132         0.808783         1.364381
 C         3.662371        -0.465284        -0.764347
 C         2.296625        -0.986117        -0.466872
 O         1.611859        -2.126510        -0.927303
 C         2.331740        -0.648417         0.978891
 H        -0.688244         0.577271         0.521888
 H        -0.387023         0.555353        -1.118872
 H        -0.288082        -1.022519        -0.225260
 H         2.524040         1.722455        -1.048232
 H         1.987741         2.122746         0.701260
 H         5.167814         0.227264         1.199838
 H         3.647808         0.071144        -1.740178
 H         4.466882        -1.166269        -0.545244
 H         1.810580        -2.766435        -0.195715
 H         2.271991        -1.270924         1.946844
