19
Iteration:  1891
 C        -0.040654         0.207092        -0.296215
 C         1.422024         0.235999         0.055489
 C         2.400944         1.363144        -0.043437
 C         3.423070         0.322908         0.549926
 O         4.535644         0.845996         1.322441
 C         3.697048        -0.598671        -0.658616
 C         2.186127        -1.067244        -0.427017
 O         1.671502        -2.246795        -0.918626
 C         2.288939        -0.564764         1.021065
 H        -0.550464         1.123685         0.075543
 H        -0.271853         0.069040        -1.372621
 H        -0.728573        -0.471852         0.110144
 H         2.503472         1.751268        -1.152735
 H         2.135786         2.230277         0.704117
 H         4.243301         0.916763         2.233412
 H         3.861518        -0.064524        -1.617579
 H         4.522673        -1.321285        -0.298080
 H         0.734056        -2.263763        -0.556665
 H         2.028961        -0.913062         2.112251
