19
Iteration:  3232
 C        -0.040921         0.126775        -0.263723
 C         1.409470         0.173725        -0.053442
 C         2.440834         1.324594         0.013555
 C         3.461376         0.394797         0.486161
 O         4.559568         0.934384         1.226892
 C         3.708137        -0.749771        -0.551975
 C         2.257680        -1.074301        -0.357269
 O         1.606031        -2.193785        -0.883901
 C         2.167839        -0.536752         1.075925
 H        -0.492361         0.281180         0.688934
 H        -0.287039         0.888716        -1.063185
 H        -0.392691        -0.915228        -0.649314
 H         2.860993         1.853227        -0.767136
 H         2.018168         2.064372         0.777557
 H         4.209912         1.715792         1.601984
 H         3.840146        -0.225487        -1.532552
 H         4.475390        -1.423275        -0.151911
 H         0.837527        -1.869996        -1.416025
 H         1.747566        -0.704562         1.950911
