19
Iteration:  2360charge 0 multiplicity 1
 C        -0.066009         0.260868        -0.262986
 C         1.356731         0.147298        -0.049189
 C         2.396182         1.393656         0.089612
 C         3.467821         0.368606         0.428734
 O         4.469844         0.816639         1.398376
 C         3.696315        -0.519535        -0.730174
 C         2.222482        -1.104907        -0.420038
 O         1.618905        -2.320375        -0.769818
 C         2.304183        -0.540098         0.979858
 H        -0.457066         1.163288         0.095029
 H        -0.135264         0.019349        -1.324602
 H        -0.808744        -0.453621         0.204434
 H         2.386327         1.999658        -0.805135
 H         2.127279         1.941306         0.906559
 H         4.598118         1.814815         1.493769
 H         3.962117        -0.102449        -1.710599
 H         4.455308        -1.346275        -0.461327
 H         2.018546        -2.629534        -1.632276
 H         2.209171        -0.996105         1.875183
