19
Iteration:   113charge 0 multiplicity 1
 C        -0.233068         0.138261        -0.007955
 C         1.366344         0.131038        -0.011690
 C         2.373740         1.399519         0.087841
 C         3.442900         0.314790         0.573762
 O         4.545859         0.953137         1.201100
 C         3.721078        -0.552197        -0.682363
 C         2.248208        -1.012779        -0.518237
 O         1.645674        -2.185090        -1.002226
 C         2.288662        -0.601756         1.012208
 H        -0.478628         1.031800         0.588277
 H        -0.515412         0.320200        -1.039362
 H        -0.850877        -0.684326         0.371891
 H         2.616568         2.070028        -0.794271
 H         2.092275         1.951458         0.948037
 H         5.093853         0.154497         1.390998
 H         4.053978        -0.204166        -1.730979
 H         4.407712        -1.430471        -0.437901
 H         2.353022        -2.895263        -0.901284
 H         1.975586        -0.965183         2.088221
