19
Iteration:  1392charge 0 multiplicity 1
 C        -0.094112         0.040079        -0.138479
 C         1.417377         0.216589        -0.070357
 C         2.353497         1.432709        -0.064737
 C         3.423025         0.383299         0.467182
 O         4.457576         0.752046         1.299000
 C         3.731977        -0.650138        -0.547359
 C         2.304442        -1.076550        -0.366982
 O         1.627893        -2.117677        -0.874322
 C         2.220625        -0.441377         1.005246
 H        -0.638928         0.529456         0.736875
 H        -0.786747         0.566018        -0.905307
 H        -0.245270        -1.145214        -0.173765
 H         2.707561         2.032298        -0.834060
 H         2.089159         2.040331         0.858171
 H         5.173516         1.142737         0.674684
 H         4.119181        -0.338460        -1.577511
 H         4.453417        -1.425237        -0.179201
 H         2.039546        -2.165568        -1.737748
 H         1.745146        -0.811312         2.051657
