19
Iteration:  3377charge 0 multiplicity 1
 C        -0.067596         0.059846        -0.267050
 C         1.402691         0.202377         0.047780
 C         2.416539         1.393476        -0.076528
 C         3.448329         0.457746         0.528893
 O         4.658111         0.795628         1.226939
 C         3.600773        -0.610626        -0.579764
 C         2.214055        -1.142100        -0.304948
 O         1.657343        -2.206093        -0.973241
 C         2.160037        -0.470971         1.138922
 H        -0.675203         0.889590         0.083362
 H        -0.168369         0.155496        -1.392973
 H        -0.489609        -0.832049         0.158085
 H         2.755561         1.920791        -0.905949
 H         2.115268         2.174242         0.711817
 H         4.421732         1.431137         1.917499
 H         3.972698        -0.299605        -1.585741
 H         4.324489        -1.350269        -0.168306
 H         1.154517        -1.874362        -1.722075
 H         1.763622        -0.901139         2.115626
