19
Iteration:  4158charge 0 multiplicity 1
 C        -0.031093         0.265009        -0.326417
 C         1.445426         0.067484        -0.115280
 C         2.397163         1.199334        -0.015411
 C         3.467079         0.414513         0.530421
 O         4.501930         1.073300         1.292075
 C         3.741741        -0.676024        -0.556604
 C         2.189404        -1.128043        -0.380208
 O         1.530311        -2.114632        -0.893774
 C         2.251143        -0.607556         1.084780
 H        -0.451035         0.963424         0.496150
 H        -0.262856         0.823991        -1.280676
 H        -0.792149        -0.500008        -0.373241
 H         2.701465         1.762996        -0.918045
 H         1.850442         1.725283         0.706499
 H         4.886364         0.579968         2.002845
 H         4.069352        -0.431476        -1.642968
 H         4.361636        -1.560440        -0.089548
 H         2.025280        -2.966353        -0.980044
 H         1.873313        -0.712358         2.164986
