19
Iteration:   749
 C        -0.115610         0.211117         0.047750
 C         1.404057         0.140406         0.010001
 C         2.357336         1.360011         0.071724
 C         3.416524         0.412690         0.594215
 O         4.439473         1.026938         1.259807
 C         3.760158        -0.597433        -0.672890
 C         2.258622        -1.073954        -0.536014
 O         1.634553        -2.160639        -1.107534
 C         2.308881        -0.731691         0.962128
 H        -0.444276         0.987856         0.779786
 H        -0.680392         0.541510        -0.864334
 H        -0.509889        -0.778626         0.411454
 H         2.655289         1.618817        -0.971143
 H         2.000321         2.084322         0.754980
 H         4.766842         0.407731         1.920311
 H         4.062138        -0.157181        -1.696745
 H         4.450767        -1.390927        -0.372351
 H         1.979182        -3.030601        -0.741618
 H         2.163355        -1.353181         1.724773
