19
Iteration:  1100
 C         0.032584        -0.001576         0.010326
 C         1.437650         0.220375        -0.011484
 C         2.350791         1.384326        -0.149013
 C         3.426720         0.412941         0.465489
 O         4.319747         0.835096         1.416879
 C         3.772156        -0.641403        -0.674891
 C         2.251047        -1.006187        -0.450594
 O         1.558089        -2.119258        -0.931121
 C         2.290552        -0.528902         1.037763
 H        -0.329361         0.604392         0.875183
 H        -0.467807         0.330663        -0.985787
 H        -0.208660        -1.114117         0.141665
 H         2.508377         1.825180        -1.244721
 H         2.210426         2.138232         0.567093
 H         5.239096         0.634240         1.031296
 H         4.119286        -0.147892        -1.633628
 H         4.473466        -1.331917        -0.188447
 H         1.761896        -2.106710        -1.883621
 H         2.206820        -0.925229         1.943456
