19
Iteration:  4273
 C        -0.035663         0.310536        -0.288203
 C         1.361728         0.126094         0.047055
 C         2.421815         1.249933        -0.023524
 C         3.506910         0.331169         0.584782
 O         4.461841         1.069827         1.267457
 C         3.643260        -0.763369        -0.653221
 C         2.179825        -1.080891        -0.338109
 O         1.761099        -2.227610        -0.974891
 C         2.182803        -0.492476         1.119366
 H        -0.461110         1.197710         0.162116
 H        -0.222699         0.324278        -1.377489
 H        -0.661559        -0.537441         0.085311
 H         2.529844         1.630071        -1.019223
 H         2.264263         2.100308         0.711417
 H         5.038154         0.410079         1.604890
 H         3.846427        -0.264137        -1.644840
 H         4.406886        -1.574495        -0.353615
 H         0.771766        -2.246472        -1.094223
 H         2.108227        -1.249470         1.986657
