19
Iteration:  1580charge 0 multiplicity 1
 C        -0.084327         0.326208        -0.124500
 C         1.430932         0.178730        -0.114041
 C         2.414455         1.311331        -0.043217
 C         3.385819         0.307393         0.545134
 O         4.468645         0.892911         1.240085
 C         3.672331        -0.666264        -0.593057
 C         2.255533        -1.051906        -0.404450
 O         1.709422        -2.213272        -0.886838
 C         2.171191        -0.603947         1.009949
 H        -0.326397         1.048353         0.606694
 H        -0.526836         0.779056        -1.001388
 H        -0.365741        -0.719693         0.113906
 H         2.785245         1.799180        -0.917638
 H         2.200878         2.012256         0.834989
 H         4.085747         1.393845         2.016868
 H         4.141720        -0.147811        -1.457526
 H         4.377598        -1.464526        -0.322535
 H         2.328564        -2.585643        -1.570450
 H         1.807402        -1.180394         1.848332
