19
Iteration:  1487
 C        -0.139228         0.261843        -0.242745
 C         1.321292         0.183911        -0.038792
 C         2.265827         1.470268         0.083681
 C         3.368611         0.458975         0.665833
 O         4.708637         0.713212         1.156915
 C         3.614191        -0.621496        -0.617122
 C         2.193152        -1.061078        -0.459517
 O         1.899609        -2.359129        -0.910135
 C         2.219883        -0.494959         1.028722
 H        -0.488545         1.128961         0.262478
 H        -0.406357         0.625059        -1.183282
 H        -0.572873        -0.630177         0.007723
 H         2.558778         2.013762        -0.907073
 H         1.842226         2.110032         0.856243
 H         4.525700         1.192598         2.015450
 H         4.064913        -0.195694        -1.505030
 H         4.297748        -1.440944        -0.371183
 H         0.943173        -2.321616        -0.972499
 H         1.707742        -1.097525         1.919626
