19
Iteration:   698
 C        -0.073629         0.039141        -0.086989
 C         1.431607         0.127707        -0.019572
 C         2.429068         1.592232        -0.024835
 C         3.414474         0.391808         0.586145
 O         4.527110         0.819731         1.382876
 C         3.544230        -0.447418        -0.803705
 C         2.220661        -1.104618        -0.467560
 O         1.621968        -2.213684        -0.936688
 C         2.297708        -0.593485         0.985181
 H        -0.653119         0.723267         0.464237
 H        -0.375829         0.414356        -1.049495
 H        -0.389274        -1.000618         0.170850
 H         2.713260         2.116245        -0.924287
 H         2.040459         2.252082         0.847639
 H         4.978457         0.122260         1.803690
 H         3.715518         0.116071        -1.693732
 H         4.447148        -1.022862        -0.643240
 H         2.152464        -3.021637        -0.929201
 H         2.122572        -1.025162         1.906369
