19
Iteration:  4524charge 0 multiplicity 1
 C        -0.133651         0.320176        -0.146676
 C         1.346832         0.215307        -0.050097
 C         2.330164         1.369612        -0.032804
 C         3.386369         0.439151         0.540830
 O         4.573670         0.781684         1.290500
 C         3.681765        -0.524540        -0.570945
 C         2.236781        -1.053474        -0.482452
 O         1.819011        -2.386251        -0.820493
 C         2.217294        -0.650842         0.916228
 H        -0.642959         1.013764         0.535730
 H        -0.474502         0.621641        -1.177485
 H        -0.692549        -0.598850         0.057336
 H         2.748481         1.883631        -0.937321
 H         2.025150         2.060440         0.826599
 H         4.520652         1.683296         1.753273
 H         4.077730        -0.160865        -1.462651
 H         4.298468        -1.375649        -0.299248
 H         1.476460        -2.327541        -1.731911
 H         1.914049        -1.093759         1.945854
