19
Iteration:  3806
 C        -0.155135         0.134335        -0.179532
 C         1.413056         0.250389        -0.097746
 C         2.443282         1.382894        -0.158553
 C         3.486805         0.384256         0.492420
 O         4.530009         0.807151         1.360935
 C         3.747882        -0.709595        -0.554184
 C         2.259888        -1.042502        -0.372715
 O         1.694070        -2.225553        -0.864609
 C         2.165129        -0.486261         0.973384
 H        -0.468092         0.798722         0.647200
 H        -0.618436         0.580671        -1.093945
 H        -0.568483        -0.833132        -0.118099
 H         2.534410         1.892182        -1.183185
 H         2.079815         2.105780         0.542315
 H         4.160355         1.579102         1.931849
 H         4.011785        -0.491954        -1.555426
 H         4.506324        -1.371629        -0.163918
 H         0.736636        -2.065099        -1.001755
 H         2.033463        -1.038054         1.933528
