19
Iteration:   808charge 0 multiplicity 1
 C        -0.106085         0.072625        -0.192832
 C         1.343950         0.113516         0.203658
 C         2.249741         1.416912         0.027966
 C         3.417129         0.453268         0.492817
 O         4.527730         0.790595         1.254487
 C         3.708343        -0.499834        -0.641098
 C         2.259521        -1.007455        -0.387766
 O         1.667221        -2.103893        -1.051924
 C         2.309716        -0.639322         1.087072
 H        -0.661536         0.480349         0.664450
 H        -0.183090         0.827507        -1.029014
 H        -0.575571        -0.902224        -0.474748
 H         2.085911         1.934667        -0.898918
 H         2.102249         2.346242         0.743540
 H         5.319975         0.390489         0.760339
 H         3.996319        -0.028427        -1.569571
 H         4.471735        -1.275944        -0.464107
 H         2.160486        -2.935194        -1.028135
 H         2.281784        -1.303894         2.097646
