19
Iteration:   546charge 0 multiplicity 1
 C        -0.092971         0.096885        -0.058538
 C         1.398011         0.196435        -0.028339
 C         2.376772         1.387030        -0.064927
 C         3.421279         0.371747         0.526664
 O         4.539556         0.752857         1.272914
 C         3.617767        -0.497471        -0.743020
 C         2.260296        -1.030379        -0.430673
 O         1.727436        -2.155391        -0.941263
 C         2.178794        -0.503745         1.104366
 H        -0.492260         0.918651         0.566174
 H        -0.522386         0.075403        -1.111328
 H        -0.529525        -0.892150         0.363330
 H         2.660397         1.831993        -1.030024
 H         2.129012         2.290751         0.650956
 H         4.582498         0.151227         2.018004
 H         3.572456         0.036081        -1.680427
 H         4.586265        -1.108117        -0.783626
 H         2.414520        -2.867567        -0.791642
 H         1.720256        -0.806429         1.938580
