19
Iteration:  3856charge 0 multiplicity 1
 C        -0.148155         0.289710        -0.238092
 C         1.372561         0.140351        -0.051631
 C         2.360489         1.284893        -0.150448
 C         3.381650         0.402024         0.589428
 O         4.667623         0.932882         1.209960
 C         3.733217        -0.720255        -0.447458
 C         2.221323        -1.104011        -0.253851
 O         1.710081        -2.232720        -1.032248
 C         2.224833        -0.574112         1.123039
 H        -0.536309         0.993285         0.476692
 H        -0.480918         0.558978        -1.239233
 H        -0.652317        -0.786177        -0.243147
 H         2.598915         1.723691        -1.058185
 H         1.896910         2.039827         0.579123
 H         4.384190         1.574249         1.850442
 H         4.196493        -0.270979        -1.453590
 H         4.417228        -1.572668        -0.150135
 H         0.894707        -1.784556        -1.317755
 H         1.812170        -0.878432         1.976118
