19
Iteration:  2882charge 0 multiplicity 1
 C        -0.158968         0.203873        -0.309003
 C         1.377622         0.188081        -0.019018
 C         2.308419         1.368203         0.050191
 C         3.478673         0.363430         0.494440
 O         4.556518         0.772823         1.335843
 C         3.733867        -0.541518        -0.662280
 C         2.270018        -1.072820        -0.415014
 O         1.667324        -2.221027        -0.765436
 C         2.263055        -0.570485         1.029959
 H        -0.835150         0.687047         0.422934
 H        -0.440551         0.489403        -1.400662
 H        -0.459546        -0.887185        -0.203859
 H         2.486700         1.942924        -0.954744
 H         2.146488         2.063804         0.845834
 H         4.655353         1.781872         1.052033
 H         3.973257        -0.283195        -1.767768
 H         4.388253        -1.398662        -0.311087
 H         1.457706        -2.040984        -1.696204
 H         2.090285        -1.026212         1.987288
