19
Iteration:  2175charge 0 multiplicity 1
 C         0.025848         0.094365        -0.310798
 C         1.414456         0.224421        -0.047456
 C         2.402239         1.348417        -0.087616
 C         3.393322         0.325899         0.530894
 O         4.547241         0.803726         1.385173
 C         3.626669        -0.616046        -0.600326
 C         2.168459        -1.041798        -0.382602
 O         1.554195        -2.141364        -0.927280
 C         2.247231        -0.451009         1.127101
 H        -0.578517         0.847525         0.089523
 H         0.127262        -0.012454        -1.435252
 H        -0.352029        -0.862054         0.109768
 H         2.691769         1.806559        -1.075369
 H         2.045937         2.248272         0.559347
 H         4.873422         1.684800         1.348273
 H         4.011464        -0.258911        -1.540561
 H         4.344419        -1.365025        -0.186104
 H         2.193826        -2.908514        -0.980300
 H         1.982240        -0.956869         2.156398
