19
Iteration:  2249
 C        -0.104967         0.372391        -0.233524
 C         1.408483         0.175873        -0.063876
 C         2.422683         1.343663        -0.070306
 C         3.433605         0.373931         0.552407
 O         4.394559         0.983281         1.392032
 C         3.730552        -0.595752        -0.662977
 C         2.299295        -1.145090        -0.424734
 O         1.685515        -2.334736        -0.875223
 C         2.205582        -0.582739         0.945198
 H        -0.505592         0.718837         0.770278
 H        -0.451060         1.071504        -1.035080
 H        -0.556161        -0.685190        -0.294424
 H         2.639204         1.924382        -1.004534
 H         2.232312         2.068201         0.692588
 H         5.126633         0.379981         1.536724
 H         3.921782        -0.255761        -1.696461
 H         4.485142        -1.450606        -0.465150
 H         1.475973        -2.828999        -0.081124
 H         1.916361        -1.191146         1.916104
