19
Iteration:  3970
 C        -0.195947         0.163761        -0.249602
 C         1.340888         0.256310        -0.112340
 C         2.465643         1.356330        -0.015213
 C         3.453341         0.374628         0.499041
 O         4.586402         0.875898         1.213335
 C         3.701913        -0.724674        -0.484258
 C         2.224317        -1.093160        -0.363270
 O         1.652613        -2.246068        -0.897143
 C         2.212931        -0.385262         1.103521
 H        -0.731272         0.701747         0.567013
 H        -0.521737         0.577105        -1.225378
 H        -0.282753        -0.867979        -0.240258
 H         2.566848         1.911110        -0.976024
 H         2.223284         2.055038         0.719873
 H         4.297117         1.163029         2.027433
 H         4.276739        -0.351228        -1.400387
 H         4.298542        -1.593414        -0.121958
 H         1.978369        -2.589743        -1.741379
 H         1.946153        -1.024805         1.914353
