19
Iteration:  2617charge 0 multiplicity 1
 C        -0.073187         0.158477        -0.154996
 C         1.446849         0.187145        -0.054805
 C         2.433261         1.304022        -0.063659
 C         3.379453         0.385161         0.571017
 O         4.384292         0.954206         1.313937
 C         3.742860        -0.693904        -0.551165
 C         2.321000        -1.072757        -0.350538
 O         1.609757        -2.191233        -0.983679
 C         2.266690        -0.631641         1.059307
 H        -0.431847         0.689989         0.740575
 H        -0.419707         0.715541        -1.126818
 H        -0.505158        -0.857288        -0.149201
 H         2.759453         1.837498        -1.087637
 H         2.159926         2.061424         0.698306
 H         4.855268         1.614934         0.692784
 H         4.129420        -0.135821        -1.463513
 H         4.449907        -1.483149        -0.258701
 H         1.091400        -1.709015        -1.698833
 H         2.111324        -1.155661         2.032164
