19
Iteration:  4411charge 0 multiplicity 1
 C        -0.103522         0.343745        -0.299557
 C         1.345331         0.177735         0.074062
 C         2.338763         1.383505         0.079004
 C         3.458890         0.342050         0.522317
 O         4.513722         0.995236         1.240785
 C         3.712176        -0.619948        -0.543064
 C         2.280625        -1.105951        -0.391927
 O         1.717377        -2.404274        -0.901914
 C         2.189228        -0.588306         0.985161
 H        -0.637242         0.901484         0.480391
 H        -0.126444         0.825545        -1.286383
 H        -0.525171        -0.746777        -0.451155
 H         2.575771         2.005965        -0.898506
 H         2.060576         2.024650         0.908348
 H         5.419031         0.590326         0.930303
 H         3.930348        -0.196790        -1.473726
 H         4.421917        -1.352378        -0.088645
 H         1.008484        -2.418931        -1.547516
 H         1.830385        -0.855301         2.016808
