19
Iteration:  2402
 C        -0.040105         0.288435        -0.249710
 C         1.365872         0.186312         0.039009
 C         2.335638         1.330984        -0.067148
 C         3.415515         0.438182         0.537696
 O         4.484737         0.779016         1.342576
 C         3.638468        -0.489441        -0.659629
 C         2.275549        -1.085647        -0.430106
 O         1.766807        -2.358191        -0.815196
 C         2.197798        -0.585993         1.049091
 H        -0.433607         1.095187         0.449410
 H        -0.152588         0.547175        -1.237013
 H        -0.620043        -0.680270        -0.047387
 H         2.616913         1.900765        -0.997463
 H         2.174588         2.062117         0.819889
 H         4.912013         1.508723         0.734502
 H         3.927434         0.003230        -1.533849
 H         4.355832        -1.322196        -0.394191
 H         1.229195        -2.318831        -1.627940
 H         2.013718        -1.104904         1.895873
