19
Iteration:  2695
 C        -0.099260         0.263042        -0.228409
 C         1.419490         0.193158        -0.121840
 C         2.319175         1.426845         0.050241
 C         3.396017         0.402847         0.513949
 O         4.581731         0.778609         1.317832
 C         3.594969        -0.523355        -0.726984
 C         2.249047        -1.010540        -0.447368
 O         1.763739        -2.399578        -0.685537
 C         2.240015        -0.515539         0.948215
 H        -0.625658         0.970126         0.368826
 H        -0.249956         0.569596        -1.304934
 H        -0.419344        -0.779508        -0.165527
 H         2.451606         2.037732        -0.937904
 H         1.925015         2.129012         0.775914
 H         4.365692         0.391679         2.239968
 H         3.843441         0.021454        -1.665972
 H         4.414249        -1.218157        -0.392847
 H         1.578802        -2.395983        -1.635793
 H         2.074239        -1.202133         1.872103
