19
Iteration:   702charge 0 multiplicity 1
 C        -0.068978         0.056290        -0.073628
 C         1.433219         0.136404         0.005528
 C         2.388690         1.590985        -0.032104
 C         3.410836         0.401487         0.573980
 O         4.489991         0.811020         1.409704
 C         3.555702        -0.471934        -0.839692
 C         2.269174        -1.086596        -0.455984
 O         1.601955        -2.225168        -0.961396
 C         2.348328        -0.576665         0.978005
 H        -0.643616         0.845501         0.562889
 H        -0.422902         0.364327        -1.114518
 H        -0.358547        -0.953984         0.166817
 H         2.692130         1.991029        -1.025510
 H         2.051338         2.239177         0.759922
 H         4.968794         0.037910         1.880268
 H         3.674170         0.129034        -1.786532
 H         4.514338        -1.090161        -0.578679
 H         2.131807        -3.040017        -0.882616
 H         2.182917        -1.059775         2.086804
