19
Iteration:   770charge 0 multiplicity 1
 C        -0.079709         0.133609         0.018702
 C         1.429807         0.144576        -0.020738
 C         2.322499         1.339154         0.072636
 C         3.489628         0.349985         0.592889
 O         4.566147         1.096068         1.233571
 C         3.644619        -0.574327        -0.601509
 C         2.235123        -1.092353        -0.451542
 O         1.667198        -2.209477        -1.213570
 C         2.119351        -0.675171         1.061441
 H        -0.440562         0.877317         0.778594
 H        -0.421063         0.774962        -0.780071
 H        -0.621548        -0.809995         0.170087
 H         2.498163         2.105733        -0.748969
 H         2.161967         1.732130         1.017258
 H         5.336472         0.536197         1.383477
 H         4.005282        -0.106897        -1.606097
 H         4.269975        -1.492667        -0.442677
 H         2.256334        -2.897535        -0.915206
 H         1.593994        -0.971571         1.865117
