19
Iteration:  4262charge 0 multiplicity 1
 C        -0.021029         0.300900        -0.295033
 C         1.462747         0.164068        -0.019651
 C         2.381941         1.323145        -0.039117
 C         3.388591         0.278754         0.537507
 O         4.387643         0.994124         1.257418
 C         3.611628        -0.664017        -0.609612
 C         2.268264        -1.076193        -0.361119
 O         1.747445        -2.233480        -0.908020
 C         2.251732        -0.585155         1.118202
 H        -0.301766         1.205390         0.208164
 H        -0.139770         0.497385        -1.367205
 H        -0.640694        -0.544881         0.085838
 H         2.690462         1.832419        -0.924449
 H         2.236823         2.053451         0.811420
 H         5.214142         0.569262         1.337378
 H         3.967196        -0.320095        -1.610647
 H         4.138846        -1.667314        -0.433263
 H         0.791425        -2.172384        -0.712379
 H         2.066659        -1.088977         2.157849
