19
Iteration:  2796charge 0 multiplicity 1
 C        -0.095957         0.237676        -0.077380
 C         1.378163         0.172192        -0.015648
 C         2.384479         1.406391        -0.114236
 C         3.405102         0.373657         0.545120
 O         4.428413         0.871980         1.312459
 C         3.718455        -0.661008        -0.500149
 C         2.205382        -1.013710        -0.422539
 O         1.796411        -2.255785        -0.934037
 C         2.226699        -0.573950         0.968554
 H        -0.439748         0.837111         0.736944
 H        -0.360174         0.477071        -1.081112
 H        -0.490679        -0.802094         0.124810
 H         2.755170         1.674917        -1.096388
 H         2.008753         2.151402         0.583177
 H         5.172718         0.893816         0.721520
 H         3.886015        -0.443049        -1.512183
 H         4.186999        -1.510779         0.047356
 H         1.504236        -2.109101        -1.884081
 H         1.824056        -0.892327         1.825821
