19
Iteration:  3648
 C        -0.117252         0.333009        -0.125585
 C         1.397983         0.169272        -0.023375
 C         2.371481         1.299711        -0.152296
 C         3.460690         0.355067         0.483964
 O         4.419180         0.797182         1.313487
 C         3.797085        -0.603117        -0.661501
 C         2.223112        -1.089781        -0.383810
 O         1.764074        -2.247286        -0.861804
 C         2.242681        -0.510365         1.011481
 H        -0.455574         0.767355         0.810179
 H        -0.435529         0.891460        -1.040354
 H        -0.696951        -0.692209        -0.321840
 H         2.866162         1.717942        -1.118547
 H         2.209934         2.185483         0.556866
 H         3.919254         1.382761         1.932668
 H         4.202653        -0.236055        -1.618292
 H         4.500902        -1.413326        -0.354780
 H         0.817924        -2.466655        -0.768616
 H         1.949816        -0.956930         2.024093
