19
Iteration:   207
 C        -0.119742         0.222672        -0.019296
 C         1.399913         0.188921        -0.078687
 C         2.251315         1.346417         0.128842
 C         3.449579         0.361440         0.504089
 O         4.565861         0.800124         1.193262
 C         3.686585        -0.554497        -0.602903
 C         2.254525        -1.088811        -0.387948
 O         1.784887        -2.237076        -1.069564
 C         2.231572        -0.585629         1.000297
 H        -0.460100         0.590290         0.950612
 H        -0.491369         0.648354        -0.966973
 H        -0.580945        -0.791156        -0.067752
 H         2.431139         2.114192        -0.664045
 H         1.948605         1.826446         1.152198
 H         4.775776         1.706451         0.824965
 H         4.022636        -0.079497        -1.566864
 H         4.468887        -1.238615        -0.276418
 H         0.886153        -2.417751        -0.761244
 H         1.864865        -0.633563         1.970132
