19
Iteration:  2410charge 0 multiplicity 1
 C        -0.100823         0.261705        -0.251267
 C         1.355737         0.207333         0.012648
 C         2.427302         1.339524        -0.049902
 C         3.390480         0.401947         0.552143
 O         4.501483         0.813575         1.334214
 C         3.670768        -0.547143        -0.605429
 C         2.239065        -1.080474        -0.424414
 O         1.763580        -2.362409        -0.877557
 C         2.235016        -0.500429         1.048828
 H        -0.609231         0.765083         0.653184
 H        -0.433929         0.600003        -1.281437
 H        -0.532534        -0.748070        -0.062862
 H         2.507643         1.984001        -0.949626
 H         1.867781         2.026039         0.756073
 H         5.143186         1.334215         0.764265
 H         3.980833        -0.064214        -1.569377
 H         4.446714        -1.247154        -0.344840
 H         1.067656        -2.370071        -1.535077
 H         2.027425        -1.066042         1.998593
