19
Iteration:   226charge 0 multiplicity 1
 C        -0.144543         0.279404        -0.009571
 C         1.390224         0.098362         0.008478
 C         2.355636         1.415384         0.092787
 C         3.445419         0.405167         0.508815
 O         4.515826         0.915336         1.315947
 C         3.662236        -0.645638        -0.745149
 C         2.262257        -1.152725        -0.431074
 O         1.794267        -2.260330        -1.133401
 C         2.213648        -0.583785         1.087083
 H        -0.417775         0.695216         1.008907
 H        -0.468930         0.983091        -0.870239
 H        -0.780817        -0.610300        -0.078741
 H         2.559638         2.118813        -0.791362
 H         1.986789         2.022968         0.970805
 H         4.974573         1.685822         0.850257
 H         3.728346        -0.332034        -1.894088
 H         4.415049        -1.496125        -0.522997
 H         1.204828        -2.794844        -0.545012
 H         1.938326        -1.121267         1.926510
