19
Iteration:  3834charge 0 multiplicity 1
 C        -0.006762         0.158041        -0.188176
 C         1.475010         0.188422         0.047339
 C         2.459540         1.312407        -0.178167
 C         3.394669         0.409480         0.547544
 O         4.494563         0.866982         1.213109
 C         3.672513        -0.758590        -0.501483
 C         2.215716        -1.055591        -0.355384
 O         1.712721        -2.191255        -1.047156
 C         2.160991        -0.456357         1.202577
 H        -0.417732         0.657298         0.668145
 H        -0.312996         0.670018        -1.093193
 H        -0.494845        -0.910802        -0.261942
 H         2.659287         1.519177        -1.190245
 H         1.905526         2.137860         0.335626
 H         4.328895         1.489335         1.989836
 H         3.823376        -0.552031        -1.644571
 H         4.492984        -1.297747         0.025601
 H         0.803657        -2.069409        -1.384437
 H         1.757874        -0.602526         2.123285
