19
Iteration:  3836
 C        -0.009834         0.162058        -0.192928
 C         1.468826         0.173472         0.040686
 C         2.435733         1.314246        -0.174628
 C         3.426171         0.403508         0.551593
 O         4.517432         0.884751         1.222760
 C         3.664975        -0.751257        -0.494696
 C         2.223736        -1.075482        -0.353334
 O         1.706572        -2.190141        -1.055538
 C         2.143095        -0.451072         1.196662
 H        -0.407523         0.639000         0.654427
 H        -0.241194         0.698302        -1.099840
 H        -0.538304        -0.863790        -0.212582
 H         2.640955         1.516410        -1.269253
 H         1.910026         2.133093         0.338773
 H         4.381435         1.451429         1.938462
 H         3.758162        -0.525728        -1.603305
 H         4.414422        -1.285433         0.063209
 H         0.817873        -2.099236        -1.411771
 H         1.770889        -0.656402         2.160518
