19
Iteration:  3426charge 0 multiplicity 1
 C        -0.137068         0.260303        -0.207089
 C         1.401034         0.227769        -0.081264
 C         2.370831         1.327174        -0.043065
 C         3.510736         0.426360         0.515134
 O         4.542338         0.874990         1.332565
 C         3.738833        -0.675500        -0.578780
 C         2.255921        -1.116558        -0.459755
 O         1.678935        -2.301127        -0.908518
 C         2.238568        -0.524658         1.051257
 H        -0.627117         0.856139         0.636991
 H        -0.462929         0.919809        -1.005369
 H        -0.604109        -0.783796        -0.196587
 H         2.434295         1.723135        -1.081783
 H         2.053404         2.103507         0.532829
 H         4.181299         1.582511         1.922536
 H         4.057785        -0.338202        -1.587431
 H         4.387798        -1.493730        -0.272608
 H         0.690912        -2.182409        -0.909984
 H         2.127111        -1.243132         1.934748
