19
Iteration:  2699charge 0 multiplicity 1
 C        -0.108163         0.248580        -0.257625
 C         1.409787         0.202194        -0.118133
 C         2.335240         1.429513         0.045286
 C         3.426656         0.448867         0.518471
 O         4.569780         0.779415         1.332069
 C         3.619868        -0.525252        -0.748086
 C         2.219462        -1.040018        -0.447581
 O         1.760047        -2.376063        -0.693131
 C         2.253953        -0.538302         0.985756
 H        -0.700439         1.004311         0.398541
 H        -0.297213         0.506566        -1.306624
 H        -0.569073        -0.835737        -0.165288
 H         2.546573         1.922689        -0.888625
 H         1.924846         2.135217         0.889361
 H         4.464299         0.420323         2.194451
 H         3.781092         0.016119        -1.697282
 H         4.368505        -1.286459        -0.417843
 H         1.473170        -2.522923        -1.649803
 H         2.169575        -1.092771         1.807288
