19
Iteration:  2087
 C        -0.214717         0.367857        -0.244700
 C         1.395775         0.206852        -0.107873
 C         2.389856         1.374988        -0.123714
 C         3.410591         0.377243         0.534635
 O         4.530002         0.707595         1.277934
 C         3.675488        -0.625018        -0.600346
 C         2.260817        -1.136600        -0.325102
 O         1.808002        -2.283212        -0.883182
 C         2.145967        -0.450029         1.078921
 H        -0.566676         1.013011         0.624624
 H        -0.708575         0.910895        -1.152185
 H        -0.810359        -0.637115        -0.056456
 H         2.605064         1.923202        -1.062631
 H         2.439603         2.176921         0.678248
 H         4.239525         0.957301         2.135896
 H         3.905868        -0.182034        -1.536716
 H         4.590053        -1.245091        -0.384118
 H         2.628442        -2.846674        -0.968768
 H         1.817103        -0.822688         1.977130
