19
Iteration:  1852charge 0 multiplicity 1
 C        -0.067247         0.177375        -0.377633
 C         1.404413         0.127958        -0.045842
 C         2.299938         1.321953         0.102231
 C         3.463962         0.366205         0.603244
 O         4.671634         0.912296         1.092735
 C         3.604686        -0.735870        -0.466849
 C         2.217288        -1.063839        -0.303925
 O         1.702442        -2.114800        -1.024438
 C         2.190390        -0.516106         1.137534
 H        -0.584359         0.757857         0.452081
 H        -0.055092         0.708094        -1.322777
 H        -0.519498        -0.894722        -0.386432
 H         2.469103         1.910367        -0.776043
 H         2.009461         2.071709         0.718975
 H         4.750279         0.708817         2.081497
 H         4.025553        -0.381026        -1.401818
 H         4.250418        -1.485108        -0.096698
 H         0.775663        -2.278235        -1.114587
 H         1.854273        -0.577908         2.076179
