19
Iteration:  3337
 C        -0.079851         0.290762        -0.194010
 C         1.428428         0.120167        -0.031238
 C         2.410670         1.381693         0.038660
 C         3.409497         0.389758         0.488905
 O         4.473150         0.786697         1.232924
 C         3.723002        -0.558195        -0.650862
 C         2.294911        -1.003827        -0.425847
 O         1.640795        -2.278105        -0.743976
 C         2.199813        -0.624605         0.973072
 H        -0.399271         1.402278        -0.139146
 H        -0.245620         0.052382        -1.243755
 H        -0.686962        -0.407429         0.378082
 H         2.438317         1.971794        -0.966715
 H         2.000844         1.963333         0.794877
 H         4.251111         1.566304         1.822750
 H         4.114992        -0.169011        -1.568473
 H         4.402943        -1.288124        -0.190552
 H         1.812108        -2.456415        -1.711035
 H         2.162896        -1.299604         1.740390
