19
Iteration:  3273charge 0 multiplicity 1
 C        -0.056580         0.245172        -0.139814
 C         1.384279         0.231942         0.003384
 C         2.346984         1.352254        -0.155076
 C         3.398228         0.448017         0.563425
 O         4.521252         0.720378         1.234790
 C         3.727181        -0.584092        -0.580861
 C         2.261326        -1.083193        -0.396052
 O         1.784368        -2.244967        -0.891496
 C         2.159605        -0.508312         1.054163
 H        -0.717042         0.783298         0.571753
 H        -0.333550         0.457932        -1.115562
 H        -0.401502        -0.799463        -0.150920
 H         2.676316         1.521249        -1.293593
 H         2.049385         2.279932         0.414047
 H         4.270584         1.306099         2.077221
 H         4.100136        -0.609214        -1.644313
 H         4.308674        -1.369253        -0.056080
 H         0.923098        -2.103509        -1.343078
 H         1.904233        -0.868416         1.975717
