19
Iteration:  3909
 C        -0.112640         0.257072        -0.328878
 C         1.384306         0.150484        -0.104540
 C         2.422666         1.443704         0.027658
 C         3.410020         0.393193         0.471351
 O         4.559675         0.763529         1.401452
 C         3.635983        -0.543588        -0.757868
 C         2.294249        -1.091364        -0.382552
 O         1.634589        -2.324219        -0.681505
 C         2.286993        -0.549985         0.974176
 H        -0.516121         1.127098         0.218608
 H        -0.345763         0.330403        -1.418430
 H        -0.746535        -0.576122         0.099184
 H         2.611269         1.838499        -0.931216
 H         2.142118         2.207977         0.804725
 H         4.137510         1.468719         1.861158
 H         3.712564         0.012252        -1.675565
 H         4.323807        -1.364701        -0.507289
 H         1.978459        -2.565523        -1.557775
 H         2.052395        -0.803196         1.923164
