19
Iteration:    41charge 0 multiplicity 1
 C        -0.133437         0.130860        -0.062262
 C         1.363530         0.135997         0.011566
 C         2.278931         1.364744         0.076915
 C         3.509512         0.425168         0.467390
 O         4.576356         0.836503         1.368380
 C         3.700143        -0.602107        -0.862837
 C         2.330183        -1.097689        -0.465751
 O         1.651492        -2.185015        -0.809179
 C         2.285915        -0.609986         0.941175
 H        -0.613533         0.501462         0.875967
 H        -0.541688         0.878363        -0.826100
 H        -0.555850        -0.876465        -0.235859
 H         2.352395         2.068902        -0.769345
 H         2.042183         2.163810         0.879000
 H         4.594633         1.825229         1.268745
 H         3.726520         0.011750        -1.811476
 H         4.410101        -1.433745        -0.667076
 H         1.257455        -1.973332        -1.716392
 H         1.987123        -1.134415         1.905843
