19
Iteration:   752
 C        -0.096506         0.237805         0.052667
 C         1.389240         0.135596         0.009934
 C         2.383428         1.341588         0.085875
 C         3.429487         0.428761         0.577761
 O         4.480488         1.063158         1.265191
 C         3.743916        -0.598119        -0.656435
 C         2.221489        -1.088767        -0.529632
 O         1.640501        -2.186569        -1.127993
 C         2.263947        -0.730483         0.944727
 H        -0.407262         0.885840         0.851811
 H        -0.660625         0.393698        -0.909340
 H        -0.442192        -0.816749         0.314974
 H         2.646602         1.639360        -0.906760
 H         1.918317         2.097665         0.814918
 H         4.846964         0.426855         1.868232
 H         4.001642        -0.141518        -1.600626
 H         4.422507        -1.331372        -0.292454
 H         1.965811        -3.037575        -0.841861
 H         2.061119        -1.412186         1.790378
