19
Iteration:  3896
 C        -0.038583         0.304169        -0.290911
 C         1.447959         0.256365        -0.032745
 C         2.334486         1.375309        -0.014921
 C         3.481989         0.388090         0.561283
 O         4.491349         0.812732         1.302326
 C         3.666638        -0.628661        -0.697947
 C         2.186851        -1.064921        -0.454608
 O         1.696359        -2.324185        -0.709139
 C         2.240980        -0.605334         1.004309
 H        -0.622501         1.202641         0.082156
 H        -0.247824         0.292614        -1.389050
 H        -0.371024        -0.624425         0.121808
 H         2.553772         2.154757        -0.808934
 H         1.972756         1.996398         0.835407
 H         4.309309         1.641686         1.849266
 H         3.916313        -0.320096        -1.677193
 H         4.477096        -1.353694        -0.478109
 H         1.605619        -2.543723        -1.658554
 H         1.875226        -1.141202         1.865224
