19
Iteration:  3858charge 0 multiplicity 1
 C        -0.174307         0.302024        -0.252043
 C         1.365618         0.158394        -0.054883
 C         2.372967         1.280324        -0.124910
 C         3.372147         0.395583         0.589716
 O         4.652908         0.924972         1.197016
 C         3.758678        -0.723876        -0.455753
 C         2.235057        -1.090545        -0.267270
 O         1.711122        -2.234964        -1.012213
 C         2.243956        -0.596906         1.114083
 H        -0.565295         0.974685         0.461980
 H        -0.487937         0.553361        -1.257749
 H        -0.673830        -0.744230        -0.167144
 H         2.632673         1.763292        -1.093479
 H         1.862789         1.968774         0.576093
 H         4.422654         1.655385         1.890327
 H         4.149483        -0.268668        -1.454876
 H         4.420867        -1.513245        -0.073044
 H         0.881217        -1.816574        -1.348114
 H         1.769479        -0.890628         2.036504
