19
Iteration:  3389charge 0 multiplicity 1
 C        -0.011425         0.094098        -0.278569
 C         1.431194         0.201656        -0.016719
 C         2.398337         1.411189        -0.028557
 C         3.401407         0.390522         0.566880
 O         4.560944         0.789042         1.151084
 C         3.692551        -0.665005        -0.510115
 C         2.251961        -1.018001        -0.260233
 O         1.632238        -2.214567        -0.998277
 C         2.189437        -0.461975         1.115101
 H        -0.577698         0.736112         0.450614
 H        -0.379754         0.060324        -1.344403
 H        -0.228683        -0.906400        -0.004547
 H         2.619630         1.704064        -0.971910
 H         2.113867         2.242394         0.655175
 H         4.360290         1.348286         2.013104
 H         3.754820        -0.329822        -1.548571
 H         4.535907        -1.312916        -0.186906
 H         0.854791        -1.847274        -1.502304
 H         1.933783        -0.889464         2.055215
