19
Iteration:   753
 C        -0.091531         0.242784         0.053330
 C         1.385802         0.133308         0.009950
 C         2.388835         1.334636         0.089901
 C         3.433900         0.429910         0.571287
 O         4.492624         1.075260         1.266204
 C         3.734998        -0.595367        -0.651619
 C         2.212881        -1.091615        -0.525508
 O         1.641531        -2.194427        -1.135214
 C         2.249625        -0.727403         0.938662
 H        -0.400050         0.861149         0.880853
 H        -0.639594         0.351245        -0.914333
 H        -0.418718        -0.809468         0.282127
 H         2.641608         1.672409        -0.896248
 H         1.907499         2.095347         0.821317
 H         4.889355         0.413001         1.872229
 H         3.990674        -0.135806        -1.572353
 H         4.427288        -1.329950        -0.263065
 H         1.969366        -3.039940        -0.866478
 H         2.020615        -1.439812         1.830615
