19
Iteration:  4008
 C         0.099998         0.322140        -0.255577
 C         1.515059         0.134842         0.023917
 C         2.321889         1.298563        -0.127115
 C         3.444054         0.389705         0.560034
 O         4.440571         0.921735         1.252365
 C         3.669023        -0.651018        -0.515072
 C         2.248924        -1.108700        -0.340419
 O         1.617571        -2.293804        -0.913895
 C         2.196917        -0.603646         1.064107
 H        -0.385569         0.819131         0.589863
 H        -0.263814         0.919053        -1.092668
 H        -0.524639        -0.671257        -0.188228
 H         2.700081         1.560780        -1.155654
 H         2.097264         2.213895         0.548518
 H         4.397849         1.912356         1.256915
 H         4.100264        -0.277879        -1.422645
 H         4.399939        -1.276025        -0.002332
 H         1.059607        -1.846987        -1.619943
 H         1.852636        -1.363414         1.874575
