19
Iteration:  2114
 C        -0.003017         0.308512        -0.155155
 C         1.466349         0.135781        -0.029447
 C         2.352325         1.340483        -0.135129
 C         3.389511         0.363684         0.599961
 O         4.499532         0.905826         1.303111
 C         3.674077        -0.701581        -0.549560
 C         2.189335        -1.083416        -0.477707
 O         1.687230        -2.234733        -1.013824
 C         2.201386        -0.530112         1.055426
 H        -0.349764         1.314936         0.288374
 H        -0.311825         0.490371        -1.167731
 H        -0.613700        -0.449694         0.222654
 H         2.700833         1.628826        -1.135891
 H         2.252719         2.166830         0.536887
 H         4.165861         1.315563         2.074886
 H         4.154262        -0.290384        -1.512233
 H         4.360344        -1.417329        -0.124485
 H         1.898046        -2.950834        -0.361410
 H         1.827003        -1.117035         1.957359
