19
Iteration:  1494
 C        -0.144509         0.206567        -0.262980
 C         1.351337         0.239367        -0.042306
 C         2.325630         1.453456         0.081895
 C         3.374413         0.455941         0.632822
 O         4.684749         0.698610         1.158183
 C         3.628732        -0.607083        -0.618146
 C         2.213409        -1.026528        -0.422363
 O         1.884577        -2.318338        -0.904236
 C         2.140897        -0.531634         1.046154
 H        -0.730792         1.008559         0.370943
 H        -0.401130         0.446367        -1.375802
 H        -0.701391        -0.777180        -0.059589
 H         2.602829         2.021980        -0.798520
 H         1.994035         2.111658         0.888412
 H         4.857537         1.240861         1.899596
 H         3.846685        -0.050139        -1.565264
 H         4.301296        -1.442564        -0.355646
 H         0.905518        -2.485186        -0.866843
 H         1.865425        -1.017681         1.930792
