19
Iteration:  3372charge 0 multiplicity 1
 C        -0.108168         0.070322        -0.264586
 C         1.446278         0.218953         0.037483
 C         2.410876         1.398786        -0.062969
 C         3.452997         0.447915         0.541425
 O         4.672932         0.794065         1.238106
 C         3.605494        -0.615112        -0.587016
 C         2.200457        -1.136553        -0.338919
 O         1.672262        -2.207313        -0.938086
 C         2.157183        -0.509844         1.130632
 H        -0.746165         0.938826         0.037093
 H        -0.133452         0.051344        -1.341434
 H        -0.743651        -0.798708         0.113999
 H         2.639179         1.968968        -1.127238
 H         2.039005         2.113095         0.720405
 H         4.392575         1.519967         1.902318
 H         3.995493        -0.213048        -1.544718
 H         4.242443        -1.458056        -0.296219
 H         1.286864        -1.773828        -1.751012
 H         1.846043        -0.808483         2.135309
