19
Iteration:  3622charge 0 multiplicity 1
 C        -0.097372         0.451518        -0.150760
 C         1.416409         0.211456        -0.108226
 C         2.267750         1.374676        -0.143325
 C         3.421349         0.402399         0.578778
 O         4.559259         0.793338         1.231554
 C         3.637066        -0.588978        -0.553850
 C         2.208843        -1.133704        -0.370254
 O         1.904291        -2.410893        -0.853928
 C         2.179887        -0.583483         1.006866
 H        -0.288779         1.050321         0.747928
 H        -0.446318         0.925347        -1.006077
 H        -0.665877        -0.409849        -0.126222
 H         2.566205         1.935095        -0.971095
 H         1.891901         2.085412         0.677497
 H         4.284682         1.194405         2.056169
 H         3.951955        -0.210273        -1.558751
 H         4.359337        -1.371343        -0.328309
 H         1.059010        -2.385997        -1.343500
 H         1.790733        -1.121241         1.814338
