19
Iteration:  1507
 C        -0.141915         0.138838        -0.313016
 C         1.360198         0.246660        -0.010940
 C         2.425175         1.415767         0.077638
 C         3.446187         0.359598         0.513989
 O         4.623397         0.660065         1.151370
 C         3.618713        -0.486015        -0.610388
 C         2.229971        -1.038905        -0.291919
 O         1.829071        -2.198406        -0.913529
 C         2.092737        -0.556643         1.058567
 H        -0.805010         0.818021         0.326834
 H        -0.393383         0.341242        -1.377953
 H        -0.301965        -0.905088        -0.065045
 H         2.688625         2.035206        -0.849224
 H         2.123537         2.040189         0.888622
 H         4.313946         1.484332         1.707839
 H         3.846260        -0.140775        -1.608706
 H         4.452878        -1.161803        -0.364119
 H         0.975257        -2.443557        -0.545915
 H         1.812759        -0.982837         2.105899
