19
Iteration:  3726charge 0 multiplicity 1
 C        -0.085371         0.282455        -0.336888
 C         1.417640         0.144746        -0.022600
 C         2.361924         1.358315        -0.027108
 C         3.471154         0.478212         0.553568
 O         4.616893         0.785774         1.178268
 C         3.625050        -0.573241        -0.542558
 C         2.169954        -1.054180        -0.355526
 O         1.645697        -2.288442        -0.900925
 C         2.220568        -0.562587         1.159403
 H        -0.704388         1.043281         0.056337
 H        -0.136051         0.378799        -1.414320
 H        -0.594111        -0.630749         0.088475
 H         2.432056         1.862190        -1.065854
 H         1.986510         2.068531         0.749871
 H         4.427584         1.450447         1.951379
 H         4.063399        -0.389761        -1.514478
 H         4.112004        -1.370134         0.034702
 H         2.481224        -2.610319        -1.317311
 H         1.873022        -1.217112         1.970428
