19
Iteration:  1471charge 0 multiplicity 1
 C        -0.091239         0.403895        -0.141188
 C         1.377822         0.140258        -0.048964
 C         2.252797         1.363897        -0.001392
 C         3.417870         0.422017         0.477493
 O         4.565973         0.779150         1.219130
 C         3.678227        -0.568913        -0.594837
 C         2.251407        -1.094907        -0.410462
 O         1.860131        -2.351410        -0.907471
 C         2.201916        -0.596313         1.029131
 H        -0.400786         1.316198         0.528670
 H        -0.389213         0.709100        -1.235628
 H        -0.843107        -0.456642         0.108657
 H         2.384336         1.962330        -0.863664
 H         1.860580         1.942625         0.872109
 H         4.401357         1.123233         2.164096
 H         3.996284        -0.226823        -1.622009
 H         4.346357        -1.315563        -0.117971
 H         1.035849        -2.339790        -1.385815
 H         2.051767        -0.979714         1.958279
