19
Iteration:  2259charge 0 multiplicity 1
 C        -0.089064         0.301957        -0.193050
 C         1.366819         0.188169        -0.063325
 C         2.392348         1.319499        -0.055565
 C         3.483917         0.287620         0.541070
 O         4.375782         0.998038         1.323036
 C         3.759629        -0.648002        -0.647869
 C         2.320910        -1.111288        -0.411636
 O         1.702232        -2.258127        -0.915113
 C         2.209548        -0.554608         0.990332
 H        -0.439962         0.877133         0.768997
 H        -0.399396         1.021313        -0.967110
 H        -0.663820        -0.684066        -0.419177
 H         2.841790         1.639568        -1.002233
 H         1.997426         2.078627         0.494328
 H         4.869091         0.396809         1.964790
 H         3.911765        -0.128221        -1.616286
 H         4.524286        -1.460081        -0.432959
 H         1.171205        -2.657831        -0.238177
 H         1.922525        -0.888507         2.111809
