19
Iteration:   629
 C        -0.032159         0.259504        -0.151455
 C         1.411080         0.074549         0.164862
 C         2.289746         1.292836         0.033695
 C         3.444730         0.285078         0.586455
 O         4.478682         1.105389         1.240175
 C         3.704257        -0.597712        -0.687980
 C         2.276712        -1.112897        -0.348496
 O         1.618002        -2.154751        -1.140025
 C         2.265867        -0.682463         1.084345
 H        -0.636097         0.779268         0.580641
 H        -0.069318         0.938320        -0.979112
 H        -0.471678        -0.688354        -0.356244
 H         2.410744         1.707583        -1.005913
 H         1.968341         1.998434         0.733470
 H         5.350127         0.701738         1.096305
 H         3.833493         0.065097        -1.551667
 H         4.371297        -1.402817        -0.680294
 H         1.545197        -2.947616        -0.621525
 H         2.135892        -1.150639         2.119850
