19
Iteration:  3118charge 0 multiplicity 1
 C        -0.113385         0.159251        -0.144349
 C         1.415007         0.195324        -0.100961
 C         2.294737         1.374998        -0.191401
 C         3.452335         0.420807         0.522941
 O         4.538677         0.741726         1.366029
 C         3.734540        -0.657310        -0.609937
 C         2.298018        -1.051698        -0.422801
 O         1.698750        -2.183365        -0.797337
 C         2.226499        -0.505650         0.972586
 H        -0.560871         1.171046         0.276601
 H        -0.473054         0.086016        -1.164025
 H        -0.609502        -0.604029         0.431369
 H         2.720117         1.818277        -1.025747
 H         2.255777         2.213813         0.579220
 H         4.144749         1.341062         1.948762
 H         4.063239        -0.260578        -1.597895
 H         4.283907        -1.535276        -0.175945
 H         1.148131        -2.071713        -1.589940
 H         1.856829        -0.897782         2.024950
