19
Iteration:   777charge 0 multiplicity 1
 C        -0.104507         0.134054        -0.021857
 C         1.409168         0.116984        -0.032234
 C         2.332483         1.359833         0.127086
 C         3.457819         0.366867         0.624291
 O         4.535536         1.030674         1.180283
 C         3.691323        -0.634511        -0.628362
 C         2.210681        -1.075962        -0.424514
 O         1.723956        -2.145239        -1.190477
 C         2.162877        -0.627494         1.098188
 H        -0.274166         0.710268         0.919303
 H        -0.505769         0.662919        -0.922877
 H        -0.705534        -0.762247        -0.070534
 H         2.489803         1.993179        -0.757986
 H         1.998251         1.854144         1.113068
 H         5.329962         0.551727         1.051846
 H         3.784305        -0.102675        -1.543665
 H         4.359618        -1.520282        -0.473470
 H         2.249308        -2.966913        -1.051618
 H         1.515750        -0.824483         2.094039
