19
Iteration:  4097
 C        -0.121513         0.200892        -0.276137
 C         1.348187         0.188936        -0.160606
 C         2.339739         1.381256        -0.116159
 C         3.436752         0.352695         0.514422
 O         4.545573         0.774609         1.415726
 C         3.667036        -0.643135        -0.604750
 C         2.265931        -1.089044        -0.295456
 O         1.767433        -2.187834        -0.918280
 C         2.198944        -0.372499         1.061911
 H        -0.489582         1.078263         0.270461
 H        -0.497668         0.177977        -1.323309
 H        -0.559610        -0.734357         0.297932
 H         2.810901         1.866337        -1.022396
 H         1.677166         2.134453         0.498746
 H         5.319017         0.197565         1.106530
 H         3.816184        -0.119548        -1.513944
 H         4.458949        -1.262650        -0.280795
 H         1.146512        -2.682526        -0.326370
 H         2.005382        -0.839274         1.973794
