19
Iteration:  3272
 C        -0.060633         0.231551        -0.144387
 C         1.392892         0.223727         0.011527
 C         2.338970         1.359939        -0.152857
 C         3.396259         0.451802         0.551322
 O         4.532312         0.721091         1.237957
 C         3.734375        -0.585408        -0.565085
 C         2.261155        -1.079612        -0.394043
 O         1.774758        -2.241081        -0.898115
 C         2.155977        -0.500162         1.046088
 H        -0.741963         0.772782         0.581040
 H        -0.353665         0.498694        -1.110862
 H        -0.397109        -0.789767        -0.170516
 H         2.721710         1.527580        -1.317714
 H         2.059057         2.263990         0.403587
 H         4.269660         1.316216         2.052287
 H         4.067315        -0.643977        -1.613845
 H         4.326784        -1.380412        -0.069222
 H         0.921030        -2.124511        -1.335238
 H         1.908644        -0.915528         2.030010
