19
Iteration:  3812charge 0 multiplicity 1
 C        -0.124107         0.146247        -0.162700
 C         1.414267         0.249099        -0.102669
 C         2.430547         1.409417        -0.186357
 C         3.478150         0.311390         0.480835
 O         4.488419         0.817912         1.317974
 C         3.710854        -0.685303        -0.509900
 C         2.277518        -1.074563        -0.309896
 O         1.703908        -2.192451        -0.902215
 C         2.189672        -0.488539         0.991896
 H        -0.542358         0.674680         0.693611
 H        -0.472514         0.542189        -1.106209
 H        -0.547138        -0.949047        -0.162921
 H         2.646449         1.790361        -1.163948
 H         2.252523         2.221101         0.612130
 H         4.206983         1.507334         1.919686
 H         4.030439        -0.288633        -1.554269
 H         4.305076        -1.540657        -0.060939
 H         0.754352        -2.060967        -1.077239
 H         2.087384        -0.890639         1.948135
