19
Iteration:  2628
 C        -0.027718         0.201485        -0.127858
 C         1.436296         0.158214         0.049393
 C         2.379028         1.354988        -0.057219
 C         3.432302         0.314365         0.592905
 O         4.431082         0.955376         1.337188
 C         3.731995        -0.667691        -0.608318
 C         2.262097        -1.126449        -0.422680
 O         1.675841        -2.212225        -0.975685
 C         2.205544        -0.553642         1.024771
 H        -0.564634         0.668018         0.714666
 H        -0.368185         0.811024        -1.056883
 H        -0.408707        -0.834989        -0.218589
 H         2.778994         1.648999        -1.152426
 H         2.087083         2.267566         0.493055
 H         4.616422         1.712324         0.821345
 H         4.057147        -0.429649        -1.665857
 H         4.390616        -1.413156        -0.129822
 H         1.210140        -2.027695        -1.835493
 H         1.769828        -1.042772         1.962791
