19
Iteration:  1931
 C        -0.095894         0.307293        -0.092245
 C         1.400280         0.273140        -0.112736
 C         2.389753         1.470410        -0.130838
 C         3.362566         0.365369         0.534841
 O         4.407397         0.645716         1.352477
 C         3.777222        -0.567337        -0.649137
 C         2.297153        -1.094578        -0.488652
 O         1.807948        -2.343238        -0.857004
 C         2.185882        -0.529868         0.955008
 H        -0.302055         1.333183         0.019954
 H        -0.610673        -0.033585        -1.054599
 H        -0.345996        -0.440679         0.780732
 H         2.757023         2.082839        -0.937621
 H         2.176841         1.980128         0.780035
 H         4.271076         1.508836         1.846767
 H         3.983416        -0.098546        -1.582398
 H         4.461711        -1.360098        -0.355437
 H         0.900433        -2.379716        -0.582189
 H         1.778287        -0.710064         2.071570
