19
Iteration:  1752
 C        -0.048882         0.270314        -0.096893
 C         1.424872         0.184390        -0.169425
 C         2.377601         1.411955        -0.015647
 C         3.414286         0.359065         0.503558
 O         4.416149         0.718582         1.382647
 C         3.715959        -0.625937        -0.637180
 C         2.241090        -1.016764        -0.442966
 O         1.712462        -2.299466        -0.812869
 C         2.195413        -0.494952         0.920400
 H        -0.095307         1.168198         0.641683
 H        -0.421356         0.422563        -1.122482
 H        -0.598020        -0.618837         0.333189
 H         2.674145         2.000672        -0.893043
 H         2.013524         2.084941         0.783926
 H         4.866371         1.466770         1.055605
 H         3.887746        -0.105633        -1.576963
 H         4.260455        -1.485281        -0.214258
 H         1.984415        -2.470705        -1.727697
 H         1.834607        -0.806962         1.983925
