19
Iteration:  2197charge 0 multiplicity 1
 C        -0.152044         0.213253        -0.361267
 C         1.378609         0.192579        -0.036201
 C         2.334464         1.443226        -0.093470
 C         3.433641         0.370275         0.545390
 O         4.530956         0.672441         1.322090
 C         3.712893        -0.556760        -0.608463
 C         2.244874        -1.094448        -0.238763
 O         1.682554        -2.203338        -0.856615
 C         2.193767        -0.475267         1.075048
 H        -0.675017         0.838799         0.237297
 H        -0.125219         0.374816        -1.469021
 H        -0.697313        -0.740028        -0.221185
 H         2.856194         1.843367        -1.009221
 H         1.875648         2.317517         0.535352
 H         5.227720         1.363794         1.149065
 H         3.786699        -0.262416        -1.643418
 H         4.504043        -1.315692        -0.376801
 H         2.449635        -2.725746        -1.045911
 H         1.931574        -0.889188         2.136741
