19
Iteration:  1945charge 0 multiplicity 1
 C        -0.083225         0.312367        -0.079076
 C         1.419783         0.251223        -0.110658
 C         2.466403         1.426668        -0.064348
 C         3.393468         0.374258         0.535002
 O         4.495597         0.715334         1.329809
 C         3.646706        -0.592467        -0.579597
 C         2.165278        -1.045325        -0.430174
 O         1.883319        -2.394458        -0.953844
 C         2.134571        -0.488530         0.951513
 H        -0.626489         1.238545         0.174448
 H        -0.477474        -0.031954        -1.083457
 H        -0.567231        -0.310078         0.692651
 H         2.687114         1.839929        -0.995661
 H         2.086673         2.323134         0.480189
 H         4.310207         1.540661         1.725033
 H         4.188232        -0.140318        -1.413677
 H         4.311764        -1.458048        -0.263477
 H         0.941351        -2.666615        -0.790694
 H         1.692643        -0.909024         1.898718
