19
Iteration:  1840
 C        -0.076843         0.213207        -0.305589
 C         1.382310         0.138149        -0.010634
 C         2.326185         1.365285         0.039113
 C         3.394418         0.418346         0.594393
 O         4.662677         0.881460         1.113394
 C         3.732647        -0.674025        -0.453391
 C         2.201673        -1.108810        -0.363700
 O         1.694918        -2.237843        -1.049643
 C         2.219515        -0.491000         1.148034
 H        -0.796556         0.707761         0.466879
 H        -0.298461         0.815025        -1.182487
 H        -0.614372        -0.743931        -0.647263
 H         2.616374         1.944683        -0.816670
 H         1.976398         1.781054         0.912252
 H         4.746065         0.699717         2.008023
 H         4.136557        -0.479994        -1.459243
 H         4.179608        -1.529677         0.026331
 H         0.771306        -1.890109        -1.065093
 H         1.728353        -0.508410         2.066194
