19
Iteration:  4032
 C        -0.187350         0.354929        -0.267056
 C         1.447417         0.110799        -0.041606
 C         2.356412         1.342977        -0.092895
 C         3.506015         0.370338         0.528031
 O         4.436769         0.867065         1.398204
 C         3.729381        -0.718113        -0.675751
 C         2.255172        -1.143599        -0.365081
 O         1.727894        -2.268170        -0.847915
 C         2.288407        -0.523840         1.042670
 H        -0.729034         1.078621         0.335259
 H        -0.338336         0.805645        -1.264185
 H        -0.954078        -0.537131        -0.267597
 H         2.714039         1.803208        -1.003702
 H         2.170454         2.141368         0.723234
 H         4.701013         1.721007         1.215510
 H         4.081558        -0.169440        -1.558623
 H         4.493845        -1.405366        -0.414403
 H         0.785531        -2.263605        -1.066194
 H         2.014265        -0.862048         2.081952
