19
Iteration:  3261
 C        -0.124831         0.134035        -0.212247
 C         1.386018         0.187433        -0.005951
 C         2.347411         1.413329        -0.160697
 C         3.414702         0.437149         0.483052
 O         4.600775         0.759482         1.269051
 C         3.717029        -0.691937        -0.481203
 C         2.260549        -1.035387        -0.345259
 O         1.711109        -2.226251        -0.941724
 C         2.198252        -0.479744         1.067381
 H        -0.583772         0.607795         0.710414
 H        -0.365438         0.744914        -1.021031
 H        -0.508456        -0.866924        -0.251298
 H         2.659817         1.835360        -1.251087
 H         2.070657         2.294481         0.421403
 H         4.366630         1.433056         1.898098
 H         4.056223        -0.275052        -1.472955
 H         4.428894        -1.390592        -0.008513
 H         0.839141        -2.046166        -1.299003
 H         1.978089        -1.024572         2.011377
