19
Iteration:  2863charge 0 multiplicity 1
 C        -0.078399         0.157190        -0.262681
 C         1.416860         0.256526         0.024663
 C         2.376859         1.437719         0.024771
 C         3.434913         0.475438         0.516678
 O         4.439103         0.727484         1.397063
 C         3.710615        -0.584213        -0.764312
 C         2.210729        -1.025946        -0.506529
 O         1.702177        -2.335694        -0.666713
 C         2.263522        -0.552335         0.906450
 H        -0.460523         0.719306         0.530737
 H        -0.082696         0.742487        -1.128655
 H        -0.612433        -0.798151        -0.390583
 H         2.638383         1.999600        -0.841346
 H         1.973717         2.067217         0.886964
 H         4.793062         1.611286         1.042946
 H         3.914046        -0.023069        -1.659473
 H         4.425084        -1.363037        -0.517883
 H         1.333176        -2.455213        -1.543989
 H         2.107811        -1.320236         1.799723
