19
Iteration:  1059charge 0 multiplicity 1
 C        -0.142806         0.334611        -0.074835
 C         1.395642         0.059967        -0.017177
 C         2.314169         1.259629         0.056364
 C         3.444192         0.313909         0.524221
 O         4.481056         1.078982         1.356779
 C         3.691430        -0.600859        -0.715855
 C         2.224674        -1.071793        -0.447317
 O         1.793634        -2.264019        -0.980852
 C         2.258541        -0.633225         1.029925
 H        -0.305342         0.908982         0.797728
 H        -0.459023         0.777275        -1.020869
 H        -0.799626        -0.463379         0.071317
 H         2.461672         1.775435        -1.000231
 H         2.029289         1.982548         0.811047
 H         5.304175         0.637431         1.289061
 H         3.998292        -0.210884        -1.693561
 H         4.270840        -1.536347        -0.565956
 H         1.046155        -2.163111        -1.636947
 H         2.144060        -1.261418         1.792254
