19
Iteration:  2216
 C        -0.089397         0.339052        -0.346233
 C         1.420589         0.165467        -0.088926
 C         2.325189         1.363201        -0.034484
 C         3.369258         0.428798         0.546403
 O         4.460988         0.708135         1.364701
 C         3.673535        -0.600471        -0.648238
 C         2.300625        -1.061594        -0.373628
 O         1.740427        -2.264535        -0.776486
 C         2.188079        -0.467080         1.015618
 H        -0.504472         0.852327         0.578415
 H        -0.428433         0.728255        -1.301894
 H        -0.654629        -0.668495        -0.309634
 H         2.395761         1.960860        -1.009365
 H         2.117882         1.920588         0.861107
 H         5.212655         0.947276         0.678559
 H         3.891059        -0.183103        -1.656648
 H         4.449953        -1.400517        -0.278052
 H         2.426987        -2.952787        -0.763810
 H         1.922615        -0.882308         2.069312
