19
Iteration:  1907charge 0 multiplicity 1
 C        -0.098489         0.276984        -0.207555
 C         1.413691         0.133742        -0.129355
 C         2.326491         1.388279        -0.081450
 C         3.488278         0.443951         0.489952
 O         4.494230         0.729502         1.425006
 C         3.692142        -0.596981        -0.714344
 C         2.286965        -1.084457        -0.401265
 O         1.694625        -2.233763        -0.857569
 C         2.299730        -0.513617         1.024422
 H        -0.317665         1.346174        -0.056090
 H        -0.452881         0.090800        -1.231214
 H        -0.533606        -0.534493         0.503986
 H         2.596318         1.974401        -1.049731
 H         1.923074         1.946115         0.704986
 H         4.037590         1.178962         2.227773
 H         3.984418        -0.183577        -1.698599
 H         4.257710        -1.461635        -0.493629
 H         0.778746        -2.304966        -0.495312
 H         2.122427        -1.133660         1.859342
