19
Iteration:  4082charge 0 multiplicity 1
 C        -0.077960         0.196244        -0.230436
 C         1.447160         0.213629        -0.145925
 C         2.379832         1.463374        -0.148572
 C         3.347580         0.515550         0.577426
 O         4.495261         0.653369         1.380207
 C         3.701495        -0.512765        -0.605375
 C         2.317168        -1.096801        -0.328120
 O         1.764754        -2.307897        -0.856802
 C         2.113583        -0.490225         1.010174
 H        -0.590504         1.065004         0.210954
 H        -0.542180         0.263286        -1.217416
 H        -0.511173        -0.670984         0.238385
 H         2.528865         1.951365        -1.133470
 H         2.182674         2.224192         0.562213
 H         5.316452         0.336106         0.869683
 H         3.857122        -0.235275        -1.681058
 H         4.487066        -1.319409        -0.375093
 H         0.967266        -2.550210        -0.368246
 H         1.715292        -0.633734         2.091758
