19
Iteration:  4911
 C        -0.051204        -0.020006        -0.333513
 C         1.438101         0.171093         0.007722
 C         2.286533         1.385219        -0.016800
 C         3.447091         0.439304         0.484948
 O         4.501411         0.679924         1.402540
 C         3.696616        -0.547648        -0.646241
 C         2.278785        -1.007515        -0.358579
 O         1.592912        -2.082588        -0.814017
 C         2.299677        -0.516834         1.018136
 H        -0.620683         0.696040         0.223987
 H        -0.293522         0.204108        -1.354928
 H        -0.414774        -1.065528        -0.051630
 H         2.446611         1.950511        -0.960651
 H         1.962312         2.107141         0.742352
 H         4.724606         1.592727         1.512936
 H         3.805042         0.026762        -1.688841
 H         4.578201        -1.244594        -0.610587
 H         1.600999        -2.075214        -1.800777
 H         2.265255        -1.167172         1.836457
