19
Iteration:   293
 C        -0.030466         0.024880        -0.041304
 C         1.459198         0.198005        -0.124097
 C         2.373047         1.496168         0.019009
 C         3.465431         0.453092         0.458262
 O         4.456110         0.730492         1.402508
 C         3.639177        -0.538036        -0.752062
 C         2.238405        -1.021885        -0.454267
 O         1.536573        -2.249360        -0.921236
 C         2.337747        -0.540817         1.019330
 H        -0.418114         0.750951         0.733918
 H        -0.553249         0.385679        -1.023693
 H        -0.412688        -1.017581         0.187580
 H         2.481119         2.352634        -0.697451
 H         1.905481         2.039096         0.933477
 H         5.144868         1.285168         1.066457
 H         3.904320         0.054720        -1.768027
 H         4.360931        -1.342551        -0.413048
 H         2.315131        -2.776627        -1.072051
 H         1.903638        -0.861619         1.970619
