19
Iteration:  2559charge 0 multiplicity 1
 C        -0.098819         0.131428        -0.260829
 C         1.364217         0.273202        -0.043421
 C         2.424343         1.348924         0.007676
 C         3.418316         0.384691         0.526675
 O         4.439531         0.772370         1.312187
 C         3.596696        -0.477105        -0.706742
 C         2.216655        -1.001704        -0.362195
 O         1.821029        -2.276223        -0.790058
 C         2.280994        -0.578816         1.012675
 H        -0.603817         1.034844         0.100970
 H        -0.504775         0.093496        -1.318004
 H        -0.474569        -0.694170         0.295626
 H         2.743612         2.007937        -0.945788
 H         2.080708         2.053820         0.786135
 H         5.038453         0.062314         1.440468
 H         3.918613         0.114027        -1.586480
 H         4.262486        -1.289427        -0.470216
 H         1.391694        -1.996573        -1.603161
 H         1.865054        -0.864507         1.986185
