19
Iteration:  1746
 C        -0.069566         0.275160        -0.117119
 C         1.398279         0.232143        -0.170150
 C         2.400905         1.358730        -0.054981
 C         3.448247         0.359606         0.545320
 O         4.452531         0.748914         1.375983
 C         3.658274        -0.617827        -0.639641
 C         2.239068        -1.013783        -0.398115
 O         1.732166        -2.307575        -0.849973
 C         2.168190        -0.510176         0.988096
 H        -0.354630         1.110995         0.435798
 H        -0.560079         0.381224        -1.099867
 H        -0.495022        -0.650357         0.271096
 H         2.615819         2.030016        -0.917621
 H         2.067840         1.814295         0.933044
 H         5.104165         1.363615         0.882674
 H         4.030433        -0.115747        -1.577250
 H         4.249317        -1.411331        -0.160410
 H         1.904955        -2.323339        -1.796971
 H         1.870385        -0.846154         1.897081
