19
Iteration:  3363charge 0 multiplicity 1
 C        -0.161993         0.145716        -0.276080
 C         1.399375         0.182144        -0.001399
 C         2.374112         1.413516        -0.031976
 C         3.473240         0.346863         0.580764
 O         4.643651         0.794011         1.238537
 C         3.673401        -0.645875        -0.578910
 C         2.232312        -0.984154        -0.328724
 O         1.672382        -2.215091        -0.883734
 C         2.218153        -0.572545         1.055543
 H        -0.613750         1.067840        -0.067196
 H        -0.300586        -0.095888        -1.340929
 H        -0.690668        -0.749463         0.165434
 H         2.353379         1.807099        -1.151976
 H         1.956245         2.239891         0.717041
 H         4.435552         1.617843         1.800995
 H         3.816454        -0.105292        -1.564353
 H         4.333882        -1.511324        -0.466291
 H         1.481095        -2.020858        -1.844512
 H         1.991457        -0.718855         2.169602
