19
Iteration:  4768charge 0 multiplicity 1
 C        -0.044949         0.024870        -0.175378
 C         1.342569         0.250085         0.012257
 C         2.301629         1.518066        -0.035326
 C         3.411577         0.460615         0.552963
 O         4.558458         0.699687         1.395133
 C         3.722317        -0.581872        -0.639395
 C         2.283384        -1.045038        -0.456757
 O         1.637892        -2.249220        -0.852235
 C         2.261236        -0.566025         0.895044
 H        -0.785661         0.139644         0.641651
 H        -0.305518         0.804473        -0.931971
 H        -0.309670        -0.940130        -0.721781
 H         2.426880         2.225592        -0.842391
 H         2.115457         2.176918         0.836070
 H         4.643868         1.667146         1.446516
 H         4.012985        -0.248161        -1.732987
 H         4.507314        -1.212625        -0.229267
 H         1.589868        -2.250995        -1.834763
 H         1.943154        -0.877654         1.968429
