19
Iteration:  2562charge 0 multiplicity 1
 C        -0.080200         0.118350        -0.259948
 C         1.383342         0.290579        -0.025052
 C         2.414070         1.395395        -0.008146
 C         3.424061         0.369332         0.511421
 O         4.421219         0.778540         1.322644
 C         3.600067        -0.480758        -0.693197
 C         2.210403        -1.003520        -0.349455
 O         1.800061        -2.283661        -0.811274
 C         2.284190        -0.581233         1.021418
 H        -0.596213         1.009274         0.193402
 H        -0.480016         0.037511        -1.402621
 H        -0.507499        -0.703416         0.302932
 H         2.768856         1.940039        -0.965108
 H         2.068326         2.030226         0.772148
 H         5.183867         0.078051         1.411394
 H         3.963953         0.089627        -1.638005
 H         4.304084        -1.248802        -0.375241
 H         1.284040        -2.084161        -1.619060
 H         1.952018        -0.934467         1.900209
