19
Iteration:  2372charge 0 multiplicity 1
 C        -0.139089         0.330777        -0.311777
 C         1.421213         0.134948        -0.019920
 C         2.295631         1.339439         0.031484
 C         3.424379         0.413900         0.502667
 O         4.436902         0.779482         1.382554
 C         3.669707        -0.571905        -0.796863
 C         2.323055        -1.073247        -0.381462
 O         1.672585        -2.287488        -0.738285
 C         2.352865        -0.596328         1.028416
 H        -0.395033         1.306577        -0.025952
 H        -0.459899         0.422513        -1.388381
 H        -0.659904        -0.497335         0.198580
 H         2.589687         2.018318        -0.748309
 H         2.174077         1.861617         0.915570
 H         4.520066         1.696354         1.308526
 H         3.812915        -0.106572        -1.813588
 H         4.439131        -1.374522        -0.549126
 H         1.977811        -2.446054        -1.641574
 H         2.384538        -1.065430         1.936576
