19
Iteration:  4946
 C        -0.097789         0.337121        -0.237475
 C         1.346386         0.183523        -0.030631
 C         2.378397         1.387459         0.082294
 C         3.413468         0.385660         0.589132
 O         4.434459         0.924039         1.339481
 C         3.658568        -0.566839        -0.590889
 C         2.201036        -1.110314        -0.433427
 O         1.785916        -2.426301        -0.946895
 C         2.307802        -0.636357         1.019762
 H        -0.508720         0.991429         0.533206
 H        -0.230765         0.788181        -1.215401
 H        -0.692135        -0.593419        -0.241941
 H         2.648100         2.013167        -0.750033
 H         1.982235         1.977702         0.947721
 H         5.043444         1.306167         0.664890
 H         3.851355         0.115546        -1.529371
 H         4.457349        -1.380848        -0.348832
 H         1.455237        -2.254780        -1.861796
 H         2.284108        -1.270658         1.863318
