19
Iteration:  4755
 C        -0.093849        -0.041158        -0.297542
 C         1.427889         0.202131         0.002984
 C         2.297853         1.493416         0.001599
 C         3.433777         0.437678         0.457056
 O         4.509176         0.626077         1.344799
 C         3.725073        -0.523375        -0.636857
 C         2.239467        -0.991756        -0.370606
 O         1.631505        -2.157700        -0.853732
 C         2.308873        -0.484914         1.075912
 H        -0.713313         0.090108         0.617374
 H        -0.511143         0.598077        -1.101617
 H        -0.151276        -1.080658        -0.522923
 H         2.545119         1.993292        -0.963564
 H         1.965632         2.143565         0.767549
 H         4.675119         1.600041         1.542911
 H         4.117757        -0.117562        -1.719796
 H         4.321887        -1.346111        -0.282207
 H         1.498806        -2.006447        -1.803716
 H         2.243048        -1.047609         1.945220
