19
Iteration:  1449
 C        -0.100862         0.402741        -0.072347
 C         1.417929         0.142903         0.018070
 C         2.391099         1.334887        -0.085194
 C         3.438641         0.249951         0.507203
 O         4.375372         0.905254         1.304697
 C         3.732539        -0.605123        -0.716577
 C         2.351421        -1.134593        -0.398386
 O         1.733779        -2.278786        -0.886541
 C         2.253056        -0.604529         1.025973
 H        -0.387785         1.164440         0.756281
 H        -0.452127         0.762694        -1.107433
 H        -0.756432        -0.543402         0.151805
 H         2.714209         1.634081        -1.043715
 H         2.064138         2.192657         0.538353
 H         3.863775         1.424766         1.881692
 H         3.842485        -0.116257        -1.718640
 H         4.493255        -1.357975        -0.452286
 H         1.397171        -2.067889        -1.810821
 H         1.988723        -1.132095         1.890865
