19
Iteration:  3504
 C        -0.097707         0.255475        -0.205135
 C         1.336582         0.272525        -0.046200
 C         2.380148         1.383459        -0.073434
 C         3.398175         0.352004         0.528542
 O         4.577684         0.789506         1.213168
 C         3.749311        -0.611805        -0.562804
 C         2.240748        -1.049371        -0.383750
 O         1.764814        -2.289264        -0.857267
 C         2.159144        -0.544657         1.054402
 H        -0.486520         1.081735         0.489391
 H        -0.551130         0.323487        -1.230442
 H        -0.470485        -0.820347         0.122318
 H         2.550096         1.885219        -1.040517
 H         2.049019         2.105735         0.629127
 H         4.273578         1.326988         2.044513
 H         4.152164        -0.368452        -1.559047
 H         4.306424        -1.474830        -0.207143
 H         1.030353        -2.115108        -1.500369
 H         1.992327        -1.213704         1.934683
