19
Iteration:  3696
 C        -0.075207         0.135283        -0.248472
 C         1.459760         0.177248        -0.114134
 C         2.415619         1.338659        -0.058741
 C         3.463382         0.339941         0.560502
 O         4.530705         0.843046         1.223883
 C         3.718607        -0.649995        -0.518851
 C         2.292915        -1.092480        -0.358115
 O         1.575538        -2.088110        -0.952471
 C         2.185581        -0.518805         1.086237
 H        -0.660267         0.693695         0.566222
 H        -0.469114         0.351675        -1.314228
 H        -0.332318        -0.947013        -0.135655
 H         2.429101         1.982893        -0.982297
 H         2.282773         1.919326         0.801277
 H         4.211935         1.638194         1.633966
 H         3.945108        -0.160437        -1.477004
 H         4.392577        -1.459471        -0.270383
 H         1.502596        -2.777091        -0.267070
 H         1.787220        -0.648069         2.030238
