19
Iteration:  3064charge 0 multiplicity 1
 C        -0.058584         0.219120        -0.307401
 C         1.501779         0.129669        -0.051799
 C         2.350743         1.257565         0.000040
 C         3.501526         0.394511         0.601366
 O         4.583403         0.982983         1.188232
 C         3.638733        -0.704649        -0.605057
 C         2.286460        -1.121731        -0.306528
 O         1.640825        -2.191796        -0.935773
 C         2.136671        -0.565867         1.160045
 H        -0.497311         0.809924         0.620332
 H        -0.251627         0.712766        -1.255852
 H        -0.612144        -0.718187        -0.363349
 H         2.498556         1.837642        -0.886892
 H         2.092163         1.959386         0.948710
 H         4.284215         1.752559         1.589862
 H         3.888685        -0.411223        -1.670110
 H         4.255283        -1.598240        -0.273158
 H         1.044352        -1.813401        -1.621360
 H         1.745894        -1.068342         2.102774
