19
Iteration:   589charge 0 multiplicity 1
 C        -0.054089         0.147312         0.006468
 C         1.405375         0.206421        -0.006674
 C         2.326549         1.442625        -0.025574
 C         3.419392         0.440802         0.506165
 O         4.457939         0.902643         1.338791
 C         3.760491        -0.618967        -0.684954
 C         2.244712        -1.044925        -0.542263
 O         1.587370        -2.254675        -0.955163
 C         2.289418        -0.563197         0.924281
 H        -0.507634         0.659985         0.863761
 H        -0.421715         0.663280        -0.937306
 H        -0.398557        -0.964777        -0.076696
 H         2.467971         1.981735        -0.958207
 H         2.051859         2.077045         0.941419
 H         4.759799         0.117245         1.863920
 H         4.068896        -0.106306        -1.616373
 H         4.515676        -1.515526        -0.423762
 H         2.172682        -3.005669        -0.646371
 H         2.167791        -0.954504         1.830793
