19
Iteration:  2647
 C        -0.145812         0.252453        -0.148078
 C         1.425644         0.177087         0.001489
 C         2.358446         1.324512        -0.122729
 C         3.446293         0.421844         0.494064
 O         4.517904         0.861672         1.369400
 C         3.678631        -0.652575        -0.594930
 C         2.210214        -1.030432        -0.385992
 O         1.763861        -2.324147        -0.929372
 C         2.210073        -0.570005         1.023061
 H        -0.518315         0.763632         0.710303
 H        -0.463212         0.915266        -0.908794
 H        -0.529583        -0.693455        -0.246747
 H         2.562454         1.927765        -1.016024
 H         2.124113         2.035553         0.619876
 H         4.566041         1.763923         1.543118
 H         4.024887        -0.190267        -1.511383
 H         4.222628        -1.509243        -0.335167
 H         1.628417        -2.290876        -1.893349
 H         1.988818        -0.977743         1.918379
