19
Iteration:  1380
 C        -0.083020         0.081439        -0.189543
 C         1.408460         0.246893        -0.059548
 C         2.337549         1.462711        -0.042094
 C         3.406022         0.429635         0.562244
 O         4.546967         0.742769         1.291155
 C         3.638722        -0.624188        -0.609462
 C         2.229791        -1.025164        -0.332270
 O         1.708523        -2.250861        -0.895541
 C         2.217116        -0.439903         1.068395
 H        -0.628495         0.449855         0.725429
 H        -0.349146         0.501914        -1.218205
 H        -0.362313        -1.052526        -0.257822
 H         2.459975         1.992783        -0.960264
 H         1.960787         2.166432         0.744992
 H         5.307353         0.651509         0.666934
 H         3.881902        -0.177689        -1.621906
 H         4.361343        -1.388595        -0.239029
 H         1.781390        -2.226697        -1.869858
 H         1.954292        -0.933312         2.055883
