19
Iteration:   209
 C        -0.125265         0.229066        -0.019794
 C         1.390149         0.183390        -0.077616
 C         2.257728         1.352604         0.125185
 C         3.447155         0.372367         0.493746
 O         4.568200         0.809121         1.203162
 C         3.708885        -0.568307        -0.613875
 C         2.245161        -1.092388        -0.371343
 O         1.785409        -2.240183        -1.078580
 C         2.227874        -0.594375         0.996992
 H        -0.436150         0.617527         0.938012
 H        -0.496360         0.679262        -0.910223
 H        -0.582753        -0.784341        -0.079379
 H         2.388932         2.137667        -0.616157
 H         2.015473         1.749583         1.111490
 H         4.785223         1.706155         0.811559
 H         3.999199        -0.071266        -1.484909
 H         4.493358        -1.208694        -0.350690
 H         0.869696        -2.496340        -0.766496
 H         1.808176        -0.600704         2.059647
