19
Iteration:  4318charge 0 multiplicity 1
 C        -0.037101         0.156887        -0.126615
 C         1.478690         0.189444        -0.133237
 C         2.332510         1.349518        -0.128871
 C         3.415005         0.395870         0.531246
 O         4.483175         0.826907         1.211397
 C         3.766487        -0.672186        -0.549523
 C         2.299932        -1.035461        -0.411891
 O         1.659061        -2.201009        -0.857459
 C         2.128333        -0.454074         1.099464
 H        -0.378755         1.023635         0.496489
 H        -0.385260         0.283576        -1.175023
 H        -0.339591        -0.765372         0.263196
 H         2.840255         1.925818        -0.854088
 H         1.826607         1.987294         0.656728
 H         4.289674         0.640978         2.150314
 H         4.154171        -0.458270        -1.593375
 H         4.370035        -1.439966        -0.018358
 H         1.315856        -1.919218        -1.746548
 H         1.740453        -1.021470         1.904282
