19
Iteration:  2997charge 0 multiplicity 1
 C        -0.076210         0.267399        -0.182258
 C         1.385495         0.163909        -0.151359
 C         2.397701         1.418793        -0.090339
 C         3.395295         0.384152         0.504252
 O         4.471211         0.704307         1.379054
 C         3.640703        -0.507837        -0.819123
 C         2.257920        -1.060823        -0.375752
 O         1.760210        -2.317336        -0.692221
 C         2.292441        -0.492579         1.002852
 H        -0.466239         0.802313         0.747672
 H        -0.452727         0.633322        -1.104291
 H        -0.517757        -0.701047        -0.096189
 H         2.665925         1.980793        -0.938120
 H         2.273062         2.177069         0.814899
 H         4.004159         0.858973         2.294371
 H         3.656754         0.088617        -1.736971
 H         4.253358        -1.411762        -0.754627
 H         1.869197        -2.565505        -1.611954
 H         1.810596        -0.708990         1.859349
