19
Iteration:  3462charge 0 multiplicity 1
 C        -0.033765         0.511549        -0.134964
 C         1.408525         0.123054        -0.085620
 C         2.306196         1.321555        -0.070896
 C         3.446016         0.370307         0.481239
 O         4.452884         0.786657         1.285283
 C         3.589340        -0.635266        -0.683447
 C         2.295476        -1.106486        -0.338836
 O         1.906161        -2.348417        -0.865173
 C         2.138646        -0.539700         1.040952
 H        -0.178658         0.917724         0.811703
 H        -0.441956         0.907704        -1.042877
 H        -0.579108        -0.511637        -0.165771
 H         2.586132         1.800120        -1.096674
 H         2.057860         2.063336         0.661112
 H         4.301360         1.574513         1.815262
 H         3.931323        -0.029845        -1.520990
 H         4.361462        -1.337412        -0.376269
 H         0.981234        -2.512814        -1.164937
 H         1.753786        -1.006462         1.972387
