19
Iteration:  4515charge 0 multiplicity 1
 C        -0.207075         0.236360        -0.105932
 C         1.348951         0.214743        -0.092421
 C         2.409085         1.360255        -0.046633
 C         3.399246         0.345832         0.543732
 O         4.543348         0.759780         1.308344
 C         3.724712        -0.570279        -0.607488
 C         2.315275        -1.044456        -0.509473
 O         1.797298        -2.304803        -0.789453
 C         2.147675        -0.502663         0.937409
 H        -0.523153         1.107244         0.545141
 H        -0.509439         0.476056        -1.155497
 H        -0.565096        -0.674815         0.273934
 H         2.608579         1.966559        -0.904552
 H         2.051496         2.097699         0.765492
 H         4.288344         1.644622         1.720978
 H         4.037615         0.045338        -1.490610
 H         4.526456        -1.237858        -0.380208
 H         1.431800        -2.405716        -1.685629
 H         1.868609        -1.357358         1.699225
