19
Iteration:  4498charge 0 multiplicity 1
 C        -0.092025         0.115895        -0.100422
 C         1.398249         0.208261        -0.185736
 C         2.401241         1.385821        -0.066656
 C         3.427495         0.333223         0.491549
 O         4.426212         0.741352         1.365604
 C         3.812530        -0.572371        -0.735048
 C         2.268944        -0.951937        -0.429571
 O         1.716565        -2.194453        -0.758470
 C         2.173428        -0.523706         1.000227
 H        -0.488159         0.932176         0.496084
 H        -0.756526         0.076751        -0.945428
 H        -0.371230        -0.762356         0.591885
 H         2.826661         1.840872        -1.029396
 H         2.138523         2.100427         0.662137
 H         4.073479         1.408130         2.082147
 H         4.226910        -0.253741        -1.726730
 H         4.382567        -1.537310        -0.573484
 H         1.513781        -2.117674        -1.702283
 H         1.807289        -0.953074         1.858709
