19
Iteration:  2330charge 0 multiplicity 1
 C        -0.063455         0.110086        -0.175364
 C         1.366961         0.197194        -0.154704
 C         2.424592         1.398649        -0.017085
 C         3.390649         0.394096         0.573484
 O         4.546586         0.781003         1.266073
 C         3.704160        -0.595011        -0.586803
 C         2.250968        -1.069374        -0.354279
 O         1.668453        -2.150854        -0.849363
 C         2.181181        -0.582013         1.029912
 H        -0.525655         0.992921         0.262465
 H        -0.436516        -0.039638        -1.322056
 H        -0.358770        -0.803844         0.348188
 H         2.612414         1.770292        -1.048697
 H         2.040696         2.255284         0.696850
 H         4.477388         1.761953         1.475660
 H         4.014411        -0.131764        -1.581578
 H         4.378186        -1.387054        -0.215580
 H         1.702856        -2.194127        -1.799122
 H         1.907597        -1.124489         1.858941
