19
Iteration:  4534
 C        -0.101355         0.389128        -0.212941
 C         1.378068         0.134589        -0.008989
 C         2.290109         1.411991         0.036076
 C         3.412134         0.443765         0.580626
 O         4.565565         0.801657         1.240925
 C         3.675706        -0.545479        -0.639606
 C         2.161161        -1.104634        -0.424635
 O         1.836480        -2.398428        -0.873292
 C         2.247663        -0.664062         1.008867
 H        -0.415776         1.037182         0.592384
 H        -0.302866         0.874444        -1.209416
 H        -0.563962        -0.634702        -0.217245
 H         2.420581         1.924873        -1.001525
 H         1.867278         2.267235         0.653778
 H         4.402749         1.709421         1.755015
 H         4.062929        -0.269932        -1.559240
 H         4.193572        -1.331512        -0.091024
 H         1.565550        -2.356021        -1.798034
 H         1.896877        -1.041725         2.040583
