19
Iteration:  4615
 C        -0.144071         0.013293        -0.203428
 C         1.370746         0.223406        -0.122697
 C         2.354029         1.471145        -0.015252
 C         3.440868         0.409097         0.538614
 O         4.476641         0.690612         1.300828
 C         3.828418        -0.627447        -0.637519
 C         2.323506        -1.000647        -0.408092
 O         1.627562        -2.163177        -0.801362
 C         2.259473        -0.504125         0.990146
 H        -0.501049         0.415896         0.792249
 H        -0.595899         0.580382        -1.039534
 H        -0.392177        -1.047139        -0.164896
 H         2.664008         2.036473        -0.912845
 H         2.220039         2.168542         0.935626
 H         4.468059         1.636276         1.751565
 H         3.975344        -0.232893        -1.606061
 H         4.494605        -1.432399        -0.441788
 H         1.317292        -2.098176        -1.712648
 H         1.801697        -0.859110         1.825907
