19
Iteration:  4351charge 0 multiplicity 1
 C        -0.138800         0.160372        -0.173108
 C         1.373320         0.283248        -0.060602
 C         2.502441         1.465100        -0.141779
 C         3.463493         0.437953         0.518689
 O         4.462559         0.728819         1.430167
 C         3.680439        -0.562437        -0.713899
 C         2.268642        -1.061676        -0.438913
 O         1.609151        -2.367452        -0.729551
 C         2.284183        -0.492279         0.956313
 H        -0.825235         0.554620         0.603108
 H        -0.584533         0.491251        -1.129328
 H        -0.391344        -0.841512        -0.160906
 H         2.964051         1.861336        -1.006301
 H         2.165930         2.314838         0.508365
 H         4.149616         1.518136         1.799090
 H         3.976388        -0.177635        -1.771891
 H         4.479987        -1.245241        -0.381743
 H         1.743113        -2.517642        -1.695469
 H         2.280783        -1.080352         1.794211
