19
Iteration:  2450charge 0 multiplicity 1
 C        -0.041708         0.120366        -0.098298
 C         1.456455         0.187229        -0.090557
 C         2.340731         1.360113        -0.108176
 C         3.472419         0.375601         0.512634
 O         4.397948         0.912428         1.308313
 C         3.729806        -0.673711        -0.512193
 C         2.282434        -1.055347        -0.419593
 O         1.652207        -2.189786        -0.964291
 C         2.207602        -0.448853         1.076306
 H        -0.446774         0.100252         0.878470
 H        -0.448582         0.733813        -0.982813
 H        -0.289452        -0.879543        -0.455597
 H         2.656352         1.759718        -1.087390
 H         2.037367         2.082305         0.567481
 H         5.109049         0.268239         1.190452
 H         4.223264        -0.289918        -1.495416
 H         4.451027        -1.373845        -0.060667
 H         0.794422        -1.915152        -1.379379
 H         2.047169        -0.994743         2.117975
