19
Iteration:  2685charge 0 multiplicity 1
 C        -0.019464         0.280700        -0.230237
 C         1.353574         0.226428        -0.030215
 C         2.294680         1.420352        -0.038100
 C         3.385833         0.388863         0.527837
 O         4.525796         0.739392         1.244555
 C         3.689559        -0.480453        -0.676186
 C         2.275319        -1.092407        -0.442285
 O         1.794346        -2.345121        -0.691545
 C         2.182336        -0.541785         0.939610
 H        -0.392021         0.874245         0.654704
 H        -0.432997         0.728535        -1.198589
 H        -0.547036        -0.748075        -0.022567
 H         2.552687         2.179858        -0.900546
 H         1.915999         1.993477         0.900297
 H         4.283046         0.541353         2.196915
 H         3.958560        -0.087167        -1.698298
 H         4.503835        -1.290716        -0.469864
 H         1.752997        -2.400689        -1.639228
 H         1.660002        -1.094719         1.843360
