19
Iteration:  2797
 C        -0.085895         0.239776        -0.081164
 C         1.378460         0.177125        -0.010767
 C         2.383198         1.400038        -0.123362
 C         3.397979         0.381575         0.541217
 O         4.431987         0.864969         1.317984
 C         3.717822        -0.652619        -0.498623
 C         2.200756        -1.013271        -0.425192
 O         1.797146        -2.265661        -0.929583
 C         2.233800        -0.575418         0.957575
 H        -0.477044         0.858531         0.768869
 H        -0.400523         0.504252        -1.077302
 H        -0.506831        -0.803127         0.123191
 H         2.753472         1.679593        -1.082955
 H         1.976009         2.158988         0.597959
 H         5.152317         0.892868         0.750975
 H         3.885951        -0.454291        -1.530834
 H         4.212295        -1.501016         0.026172
 H         1.518649        -2.076543        -1.870477
 H         1.819396        -0.904404         1.888289
