19
Iteration:  4179charge 0 multiplicity 1
 C        -0.037335         0.261695        -0.289414
 C         1.426394         0.177013        -0.049195
 C         2.359072         1.424596        -0.134495
 C         3.373604         0.383144         0.506877
 O         4.496195         0.927877         1.348108
 C         3.698810        -0.708279        -0.598851
 C         2.249950        -1.124772        -0.323703
 O         1.604337        -2.258006        -0.894787
 C         2.242843        -0.480305         1.103830
 H        -0.729585         0.672084         0.521940
 H        -0.315628         0.913559        -1.170931
 H        -0.505863        -0.670804        -0.570334
 H         2.660377         1.818613        -1.137558
 H         2.164794         2.216456         0.594682
 H         5.032128         0.108268         1.687668
 H         3.990361        -0.151489        -1.514777
 H         4.465740        -1.463814        -0.264680
 H         2.249705        -2.976988        -0.943137
 H         1.923708        -0.943749         2.084020
