19
Iteration:   725charge 0 multiplicity 1
 C        -0.051165         0.159115         0.029142
 C         1.403601         0.085591         0.074748
 C         2.299965         1.284201        -0.054243
 C         3.500840         0.395349         0.373850
 O         4.339577         0.839331         1.404435
 C         3.758224        -0.506660        -0.801405
 C         2.259067        -1.039591        -0.449566
 O         1.657201        -2.055924        -0.977428
 C         2.342189        -0.566823         0.973476
 H        -0.537794         1.040834         0.587670
 H        -0.384765         0.457165        -1.007311
 H        -0.487289        -0.777171         0.362068
 H         2.259215         1.811082        -1.055934
 H         2.089778         1.840001         0.816458
 H         4.533676         0.042548         1.864179
 H         3.975724         0.032432        -1.784442
 H         4.561065        -1.314600        -0.623870
 H         1.936555        -2.917844        -0.660214
 H         2.260620        -1.041834         2.028742
