19
Iteration:  2650
 C        -0.152619         0.264111        -0.161638
 C         1.393323         0.181684        -0.009306
 C         2.354727         1.336159        -0.119363
 C         3.437113         0.404711         0.518980
 O         4.519153         0.831242         1.347577
 C         3.684056        -0.622504        -0.601321
 C         2.215592        -1.069004        -0.364759
 O         1.774751        -2.317447        -0.912206
 C         2.242000        -0.540597         0.987333
 H        -0.499747         0.763399         0.747390
 H        -0.574466         0.979630        -0.957984
 H        -0.609739        -0.731651        -0.198104
 H         2.693283         2.010371        -1.050524
 H         2.056813         2.043248         0.685341
 H         4.482938         1.806292         1.653748
 H         4.015466        -0.205399        -1.597473
 H         4.250084        -1.518480        -0.268552
 H         1.697680        -2.305790        -1.859751
 H         2.012026        -1.097847         2.002125
