19
Iteration:  4623charge 0 multiplicity 1
 C        -0.106827         0.052568        -0.110074
 C         1.399502         0.211077        -0.158364
 C         2.428978         1.467385        -0.031650
 C         3.393796         0.401584         0.518033
 O         4.459217         0.683092         1.341308
 C         3.760834        -0.620023        -0.703374
 C         2.330491        -1.069551        -0.361100
 O         1.697810        -2.172737        -0.814482
 C         2.188066        -0.452268         0.961765
 H        -0.631558         0.640363         0.683787
 H        -0.644413         0.391830        -1.042274
 H        -0.510289        -0.924001        -0.098807
 H         2.571626         1.998982        -1.008377
 H         2.012203         2.036569         0.789322
 H         4.505078         1.575371         1.895032
 H         3.845753        -0.112740        -1.646973
 H         4.471055        -1.394223        -0.534390
 H         1.566305        -1.910271        -1.733130
 H         1.882015        -0.935021         2.005296
