19
Iteration:   150
 C        -0.064256         0.063800        -0.083003
 C         1.439123         0.106479         0.049166
 C         2.341884         1.385868         0.015838
 C         3.444583         0.402356         0.473188
 O         4.485127         0.825921         1.299625
 C         3.651895        -0.531928        -0.848222
 C         2.278861        -1.069133        -0.402507
 O         1.569158        -2.133426        -0.908702
 C         2.387882        -0.595582         1.084332
 H        -0.457283         0.991699         0.358725
 H        -0.431550         0.262524        -1.130483
 H        -0.524389        -0.830472         0.329115
 H         2.598370         2.025709        -0.874670
 H         2.023269         2.139411         0.843062
 H         4.353646         0.966746         2.218394
 H         3.614391         0.029646        -1.832624
 H         4.531053        -1.202898        -0.688505
 H         1.656209        -2.177077        -1.872798
 H         2.320475        -1.001868         2.048405
