19
Iteration:   681charge 0 multiplicity 1
 C        -0.108676         0.036117        -0.174499
 C         1.392155         0.216922        -0.065851
 C         2.384078         1.360236         0.148007
 C         3.453985         0.408002         0.564755
 O         4.578696         0.851406         1.221705
 C         3.639971        -0.458712        -0.704346
 C         2.248558        -0.963550        -0.413157
 O         1.639187        -2.215230        -0.928200
 C         2.181691        -0.568187         1.006514
 H        -0.631622         0.650141         0.664856
 H        -0.608056         0.357422        -1.145312
 H        -0.249096        -1.029331        -0.023153
 H         2.760031         1.945243        -0.751694
 H         2.079252         1.906177         1.014915
 H         5.017771         0.051364         1.462006
 H         3.703537         0.161397        -1.650741
 H         4.440433        -1.282923        -0.586806
 H         2.383581        -2.821045        -0.871736
 H         1.625838        -1.046066         1.967167
