19
Iteration:  3297charge 0 multiplicity 1
 C        -0.120991         0.311807        -0.153023
 C         1.376200         0.152867        -0.111604
 C         2.402329         1.405721        -0.113158
 C         3.479021         0.385596         0.516973
 O         4.505783         0.806581         1.312418
 C         3.683455        -0.582249        -0.617132
 C         2.222687        -1.123776        -0.410671
 O         1.796511        -2.325851        -0.816378
 C         2.195090        -0.514761         1.034290
 H        -0.269252         1.211174         0.384418
 H        -0.546511         0.359825        -1.164779
 H        -0.820897        -0.445454         0.307070
 H         2.840722         1.916834        -0.969506
 H         2.121317         2.095451         0.781265
 H         4.007454         1.106140         2.080920
 H         3.635879        -0.208300        -1.700959
 H         4.425720        -1.393537        -0.653124
 H         1.202953        -2.298846        -1.563302
 H         2.035909        -1.035641         1.933461
