19
Iteration:  4670
 C        -0.152377         0.409721        -0.095793
 C         1.304438         0.154902         0.003587
 C         2.319949         1.300515        -0.041171
 C         3.408417         0.350085         0.500676
 O         4.495059         0.891818         1.281104
 C         3.752950        -0.581945        -0.626079
 C         2.327230        -1.103065        -0.460718
 O         1.834094        -2.282532        -0.897386
 C         2.183366        -0.646144         0.979105
 H        -0.345757         1.421300         0.353996
 H        -0.700906         0.370032        -1.069847
 H        -0.795386        -0.311043         0.453685
 H         2.714205         1.751091        -0.961479
 H         2.074724         2.129235         0.753702
 H         4.234284         0.881797         2.240427
 H         3.980796        -0.312689        -1.584321
 H         4.429841        -1.283859        -0.207860
 H         1.680507        -2.258473        -1.859628
 H         2.052600        -1.319409         1.742081
