19
Iteration:  1245charge 0 multiplicity 1
 C        -0.198609        -0.020362        -0.003967
 C         1.346482         0.258429        -0.084815
 C         2.398974         1.485518        -0.135630
 C         3.441238         0.507551         0.466069
 O         4.578983         0.655557         1.323139
 C         3.679844        -0.594686        -0.553612
 C         2.281566        -1.091605        -0.386543
 O         1.685340        -2.241035        -0.969576
 C         2.265039        -0.373787         1.036664
 H        -0.771658         0.256330         0.919207
 H        -0.667029         0.328903        -1.047039
 H        -0.445318        -1.060204        -0.047415
 H         2.690257         2.013658        -0.971829
 H         2.081788         2.199355         0.555064
 H         4.654766         1.575583         1.455151
 H         4.234600        -0.250479        -1.484954
 H         4.351692        -1.362124        -0.072084
 H         1.623529        -2.202904        -1.967564
 H         1.760543        -0.758379         2.064764
