19
Iteration:  1062
 C        -0.148910         0.323307        -0.069098
 C         1.397609         0.065647        -0.019965
 C         2.344442         1.249691         0.008651
 C         3.435613         0.327502         0.523726
 O         4.463840         1.085434         1.384966
 C         3.694358        -0.627762        -0.733329
 C         2.225490        -1.061276        -0.411215
 O         1.764816        -2.259911        -0.989866
 C         2.276122        -0.637633         1.013824
 H        -0.367900         0.941617         0.834173
 H        -0.475656         0.788531        -0.985506
 H        -0.783064        -0.542927         0.102088
 H         2.402041         1.705251        -0.888068
 H         2.077569         2.042585         0.767030
 H         5.339638         0.652659         1.229954
 H         4.007564        -0.181107        -1.678318
 H         4.431943        -1.454643        -0.580881
 H         1.134905        -2.042005        -1.681128
 H         2.190864        -1.359799         1.929351
