19
Iteration:  4441
 C        -0.110315         0.151388        -0.258401
 C         1.386158         0.111131        -0.025331
 C         2.401356         1.354046        -0.035975
 C         3.453238         0.314798         0.520213
 O         4.502029         0.955034         1.216554
 C         3.689448        -0.627800        -0.536010
 C         2.250161        -1.089753        -0.376703
 O         1.704686        -2.121593        -0.876752
 C         2.225167        -0.580012         1.085286
 H        -0.374393         1.013315         0.426925
 H        -0.312577         0.449018        -1.284235
 H        -0.522585        -0.774969         0.006350
 H         2.644133         1.839661        -0.979975
 H         2.086350         2.157123         0.619951
 H         4.750227         0.614799         2.013438
 H         3.789250        -0.269412        -1.649363
 H         4.343841        -1.433946        -0.246500
 H         1.244909        -1.908704        -1.734172
 H         1.817066        -1.194762         2.033300
