19
Iteration:   688charge 0 multiplicity 1
 C        -0.087946         0.026989        -0.133677
 C         1.390474         0.174115        -0.061630
 C         2.472213         1.438696         0.083127
 C         3.426626         0.425056         0.545557
 O         4.578007         0.846766         1.285558
 C         3.600466        -0.415742        -0.704948
 C         2.208782        -1.028930        -0.438414
 O         1.625664        -2.219771        -0.920338
 C         2.200909        -0.595276         0.991652
 H        -0.544213         0.595832         0.663091
 H        -0.406418         0.217127        -1.162742
 H        -0.445286        -1.026007        -0.032207
 H         2.764609         2.125423        -0.687638
 H         2.005010         2.123594         0.887210
 H         4.972022         0.045946         1.595901
 H         3.635301         0.159272        -1.618128
 H         4.370911        -1.223717        -0.735113
 H         2.386886        -2.853425        -0.892786
 H         1.772976        -1.055430         1.873919
