19
Iteration:   712charge 0 multiplicity 1
 C        -0.063194         0.122373        -0.053773
 C         1.433536         0.194156         0.050692
 C         2.316037         1.408641        -0.014390
 C         3.429413         0.475152         0.482465
 O         4.405946         0.795938         1.443152
 C         3.668649        -0.496021        -0.864458
 C         2.321382        -1.046863        -0.418389
 O         1.574664        -2.212119        -1.006659
 C         2.407925        -0.556098         0.998350
 H        -0.467772         0.832166         0.720058
 H        -0.427137         0.193463        -1.100591
 H        -0.425285        -0.862372         0.232591
 H         2.508597         1.827572        -1.021788
 H         2.012846         2.284391         0.586736
 H         4.692566        -0.094724         1.816322
 H         3.660187        -0.053126        -1.878118
 H         4.508035        -1.281291        -0.756153
 H         2.158433        -2.961457        -0.720808
 H         2.230727        -1.001416         2.087473
