19
Iteration:  4687
 C        -0.197534         0.419857        -0.152091
 C         1.380202         0.110814        -0.079950
 C         2.289376         1.300378         0.097388
 C         3.464790         0.346229         0.527061
 O         4.448881         0.952251         1.180199
 C         3.796443        -0.683579        -0.622810
 C         2.296469        -1.064846        -0.420708
 O         1.802297        -2.255515        -0.895948
 C         2.231727        -0.677283         1.005822
 H        -0.237238         1.411908         0.285749
 H        -0.479456         0.428471        -1.215284
 H        -0.699294        -0.304282         0.477011
 H         2.263227         2.047765        -0.754306
 H         2.022115         1.763155         1.015942
 H         4.153343         0.893941         2.162354
 H         4.323860        -0.068946        -1.530714
 H         4.437061        -1.569666        -0.280897
 H         1.499706        -2.095786        -1.802867
 H         1.879189        -1.247841         1.949353
