19
Iteration:  3119charge 0 multiplicity 1
 C        -0.114100         0.161277        -0.143555
 C         1.410857         0.203205        -0.113521
 C         2.298389         1.369305        -0.188510
 C         3.450700         0.417759         0.533160
 O         4.544170         0.735440         1.363940
 C         3.723859        -0.650358        -0.613069
 C         2.309127        -1.053392        -0.415694
 O         1.703012        -2.189809        -0.793854
 C         2.222216        -0.499091         0.960179
 H        -0.582752         1.178986         0.262646
 H        -0.513471         0.103582        -1.161505
 H        -0.599265        -0.622867         0.466253
 H         2.685016         1.851783        -1.058199
 H         2.263449         2.238314         0.623505
 H         4.131976         1.343211         1.982424
 H         4.060260        -0.268647        -1.617356
 H         4.281642        -1.537524        -0.190977
 H         1.184612        -2.093763        -1.595430
 H         1.842895        -0.884899         2.058327
