19
Iteration:  2010charge 0 multiplicity 1
 C        -0.000432         0.199942        -0.351913
 C         1.466721         0.176898        -0.039204
 C         2.367958         1.376698        -0.026974
 C         3.487374         0.370374         0.590732
 O         4.548517         0.944639         1.274648
 C         3.693871        -0.705629        -0.563001
 C         2.184577        -1.120461        -0.328925
 O         1.583664        -2.173988        -0.913887
 C         2.273153        -0.641275         1.088986
 H        -0.625108         0.611748         0.468782
 H        -0.044998         0.811149        -1.339418
 H        -0.592826        -0.785375        -0.665678
 H         2.647402         1.800226        -0.958996
 H         1.925688         2.173392         0.627281
 H         4.110722         1.648152         1.791965
 H         3.960389        -0.412172        -1.554893
 H         4.399947        -1.536832        -0.282096
 H         0.703628        -1.902127        -1.161706
 H         2.043335        -1.190441         1.988037
