19
Iteration:  2323
 C        -0.125915         0.059429        -0.181563
 C         1.428053         0.188032        -0.107042
 C         2.420345         1.336203        -0.060388
 C         3.452206         0.410200         0.529321
 O         4.553136         0.762902         1.249346
 C         3.699297        -0.600611        -0.526057
 C         2.229973        -1.026280        -0.335379
 O         1.683151        -2.154120        -0.891279
 C         2.157354        -0.523755         1.030304
 H        -0.542823         1.034194         0.240319
 H        -0.547153         0.171481        -1.124444
 H        -0.375465        -0.847726         0.327696
 H         2.735311         1.855378        -0.989640
 H         1.953070         2.118372         0.621797
 H         4.239598         1.702749         1.555210
 H         4.067819        -0.138705        -1.438887
 H         4.432590        -1.283260        -0.170940
 H         1.565155        -1.971202        -1.847896
 H         1.872688        -1.078517         2.027172
