19
Iteration:  2739charge 0 multiplicity 1
 C         0.037612         0.130730        -0.286597
 C         1.425094         0.134542         0.057931
 C         2.354980         1.349065        -0.029174
 C         3.404661         0.394147         0.541690
 O         4.445956         0.943367         1.271115
 C         3.708061        -0.584847        -0.647289
 C         2.273420        -1.035842        -0.364641
 O         1.587152        -2.192625        -0.855870
 C         2.262755        -0.588856         1.049468
 H        -0.354277         0.990627         0.202000
 H        -0.205260         0.268047        -1.352831
 H        -0.299949        -0.794655         0.167217
 H         2.567811         1.986633        -0.935031
 H         1.992265         2.143100         0.593937
 H         4.864059         0.125304         1.738289
 H         3.959996        -0.303710        -1.680133
 H         4.491760        -1.383316        -0.454235
 H         1.042744        -2.016978        -1.631261
 H         2.120750        -1.178064         1.976186
