19
Iteration:  3846charge 0 multiplicity 1
 C        -0.036245         0.211156        -0.203462
 C         1.414234         0.089591        -0.029967
 C         2.318935         1.317125        -0.186779
 C         3.485860         0.401314         0.580833
 O         4.654269         0.936477         1.238907
 C         3.635061        -0.700113        -0.443079
 C         2.218634        -1.173300        -0.287126
 O         1.703250        -2.198808        -1.075687
 C         2.124202        -0.461595         1.157645
 H        -0.493375         0.811520         0.551111
 H        -0.194402         0.745504        -1.131870
 H        -0.617512        -0.787022        -0.172733
 H         2.558671         1.634822        -1.192573
 H         2.136593         2.230569         0.409520
 H         4.306621         1.478000         1.907019
 H         4.035845        -0.342079        -1.476119
 H         4.242840        -1.570179        -0.119141
 H         0.827309        -1.937591        -1.398245
 H         1.872948        -0.851495         2.069904
