19
Iteration:  2298
 C        -0.093978         0.112834        -0.126543
 C         1.416756         0.201775        -0.027127
 C         2.354649         1.403224        -0.100845
 C         3.412640         0.432547         0.552498
 O         4.565923         0.891341         1.263367
 C         3.717086        -0.763589        -0.525314
 C         2.207808        -1.108666        -0.339453
 O         1.730774        -2.221119        -1.056941
 C         2.209635        -0.467093         1.077707
 H        -0.681986         0.809829         0.457994
 H        -0.321874         0.598843        -1.147325
 H        -0.366317        -0.922010        -0.044360
 H         2.500256         1.659613        -1.199199
 H         2.020174         2.473029         0.408641
 H         4.217761         0.961960         2.203003
 H         4.204396        -0.441671        -1.490456
 H         4.410947        -1.468711        -0.082933
 H         0.845263        -1.971441        -1.470627
 H         2.050763        -0.728400         2.045553
