19
Iteration:  4076
 C        -0.027100         0.193453        -0.232129
 C         1.413907         0.254538        -0.102438
 C         2.420991         1.493800        -0.132063
 C         3.364989         0.467553         0.543320
 O         4.438906         0.640456         1.357746
 C         3.687183        -0.515024        -0.588239
 C         2.314054        -1.073930        -0.400234
 O         1.778844        -2.354519        -0.828192
 C         2.168619        -0.487207         1.035024
 H        -0.509713         1.051439         0.278005
 H        -0.461008         0.284119        -1.260578
 H        -0.611449        -0.699619         0.245491
 H         2.568217         1.933234        -1.144515
 H         1.977119         2.319091         0.600414
 H         5.199863         0.505933         0.858473
 H         3.773593        -0.131835        -1.588879
 H         4.340585        -1.270468        -0.275801
 H         0.930879        -2.465648        -0.378121
 H         1.517799        -0.677307         1.836312
