19
Iteration:  4061charge 0 multiplicity 1
 C        -0.040906         0.257078        -0.232975
 C         1.459972         0.242877        -0.104273
 C         2.390938         1.446007        -0.072111
 C         3.369280         0.387704         0.527871
 O         4.402512         0.699039         1.393247
 C         3.633533        -0.607985        -0.670970
 C         2.174042        -1.030602        -0.424125
 O         1.837385        -2.338958        -0.760303
 C         2.188979        -0.467804         0.954400
 H        -0.598753         1.059822         0.284874
 H        -0.300550         0.372163        -1.292558
 H        -0.374482        -0.754645         0.109418
 H         2.841332         1.974785        -0.976891
 H         2.096859         2.234409         0.657812
 H         5.197303         1.043611         0.928585
 H         4.105170        -0.183881        -1.574278
 H         4.422192        -1.353566        -0.342838
 H         0.883354        -2.542661        -0.568044
 H         2.089590        -0.915994         2.036459
