19
Iteration:  3797
 C        -0.125784         0.208798        -0.209559
 C         1.387310         0.160960        -0.112865
 C         2.393470         1.368906        -0.114082
 C         3.435918         0.498287         0.543871
 O         4.563980         0.790765         1.384880
 C         3.779707        -0.719597        -0.658217
 C         2.260880        -1.046534        -0.497068
 O         1.681126        -2.282006        -0.806800
 C         2.204243        -0.458260         1.018391
 H        -0.640262         0.797495         0.665805
 H        -0.581585         0.598240        -1.182107
 H        -0.460324        -0.757341         0.130646
 H         2.769016         1.875105        -1.039298
 H         2.034707         2.135107         0.579517
 H         4.166497         1.592216         1.931922
 H         4.190223        -0.426270        -1.649646
 H         4.475468        -1.493044        -0.166358
 H         0.722198        -2.112195        -0.956092
 H         1.697927        -1.076752         1.906558
