19
Iteration:  4591
 C        -0.017630         0.117627        -0.284594
 C         1.358701         0.149361         0.027365
 C         2.373933         1.381122         0.015916
 C         3.448862         0.450529         0.594636
 O         4.609880         0.880548         1.265886
 C         3.691154        -0.605753        -0.577880
 C         2.217688        -1.029544        -0.453386
 O         1.570362        -2.235832        -0.836689
 C         2.238952        -0.577682         0.959728
 H        -0.728200         0.230707         0.588878
 H        -0.113971         0.944328        -1.062736
 H        -0.249500        -0.841869        -0.659006
 H         2.474098         1.884053        -0.998459
 H         1.969191         2.056652         0.873769
 H         4.502180         1.582121         1.880010
 H         4.104707        -0.332162        -1.482871
 H         4.236613        -1.457048        -0.284232
 H         1.283397        -2.159296        -1.775332
 H         2.211942        -1.420889         1.794565
