19
Iteration:  3512
 C        -0.075509         0.169449        -0.195669
 C         1.418550         0.246669        -0.058173
 C         2.350846         1.367085        -0.087783
 C         3.465257         0.344345         0.554310
 O         4.541557         0.809596         1.218412
 C         3.706221        -0.690634        -0.582971
 C         2.272745        -0.981309        -0.377817
 O         1.704252        -2.221288        -0.838730
 C         2.139484        -0.532159         1.025888
 H        -0.627072         0.998281         0.414913
 H        -0.259906         0.307015        -1.284061
 H        -0.549618        -0.744117         0.173973
 H         2.602728         1.867281        -1.008573
 H         2.028347         2.184078         0.777246
 H         4.329401         1.337130         2.076482
 H         3.920200        -0.271575        -1.601887
 H         4.423385        -1.428668        -0.192596
 H         1.136693        -2.132474        -1.639755
 H         2.051478        -1.185203         1.992452
