19
Iteration:  4765
 C        -0.053513        -0.002925        -0.197044
 C         1.341575         0.236196         0.012213
 C         2.289315         1.537929        -0.041266
 C         3.412660         0.458771         0.531624
 O         4.552569         0.668558         1.386532
 C         3.741404        -0.560610        -0.626014
 C         2.251642        -1.025410        -0.428810
 O         1.631319        -2.233116        -0.852497
 C         2.281687        -0.560982         0.939107
 H        -0.742994         0.121014         0.661108
 H        -0.269349         0.702507        -1.025228
 H        -0.192747        -0.883509        -0.719478
 H         2.505799         2.246750        -0.918132
 H         2.113963         2.094675         0.834695
 H         4.638037         1.720492         1.453149
 H         4.016550        -0.262969        -1.805189
 H         4.487568        -1.253148        -0.229371
 H         1.581620        -2.141128        -1.811486
 H         2.052885        -0.887329         1.866378
