19
Iteration:  4277
 C        -0.065754         0.306303        -0.280951
 C         1.351694         0.132101         0.069594
 C         2.448408         1.236038        -0.023624
 C         3.495908         0.355307         0.558521
 O         4.497674         1.081451         1.270727
 C         3.693603        -0.770031        -0.640274
 C         2.163663        -1.058018        -0.321147
 O         1.741302        -2.244050        -0.999748
 C         2.189036        -0.509970         1.132845
 H        -0.603641         1.188642         0.166771
 H        -0.244836         0.262247        -1.369862
 H        -0.705852        -0.458369         0.055886
 H         2.547932         1.590712        -1.095281
 H         2.104199         2.067326         0.640748
 H         5.063847         0.377481         1.790330
 H         3.812703        -0.344140        -1.602787
 H         4.406696        -1.462933        -0.389590
 H         0.819272        -2.317421        -1.247239
 H         1.976113        -1.164589         1.896809
