19
Iteration:  4554charge 0 multiplicity 1
 C        -0.040275         0.399073        -0.267541
 C         1.381751         0.104192         0.056342
 C         2.278677         1.261513         0.042865
 C         3.386882         0.383407         0.522561
 O         4.500599         0.868826         1.146664
 C         3.676071        -0.603118        -0.619927
 C         2.307226        -1.149584        -0.300718
 O         1.792769        -2.298188        -0.902538
 C         2.180649        -0.570185         1.095957
 H        -0.568448         0.902625         0.505955
 H        -0.051909         1.088637        -1.101445
 H        -0.722721        -0.424278        -0.735086
 H         2.588351         1.992488        -0.771676
 H         2.148754         1.803956         0.933026
 H         4.257358         1.517072         1.881285
 H         3.566952        -0.074301        -1.617522
 H         4.457509        -1.420417        -0.479494
 H         1.755318        -1.976124        -1.817402
 H         2.139948        -1.027907         2.062366
