19
Iteration:   458charge 0 multiplicity 1
 C        -0.078906         0.147876        -0.143644
 C         1.390989         0.147047        -0.001520
 C         2.365397         1.339291        -0.008801
 C         3.419355         0.452834         0.544379
 O         4.631645         0.906417         1.347540
 C         3.594093        -0.552434        -0.700248
 C         2.202356        -1.117217        -0.348606
 O         1.621272        -2.188959        -1.043953
 C         2.235654        -0.552643         1.088542
 H        -0.650829         0.427810         0.733970
 H        -0.214599         0.607756        -1.144239
 H        -0.442212        -0.888283        -0.450244
 H         2.636933         1.967141        -0.841142
 H         1.955659         2.164388         0.679939
 H         5.427880         0.574861         0.915294
 H         3.576870        -0.154824        -1.667956
 H         4.315589        -1.328004        -0.438760
 H         2.081948        -3.040888        -0.806603
 H         2.026944        -0.748893         2.120831
