19
Iteration:  4908charge 0 multiplicity 1
 C        -0.063358        -0.037698        -0.322100
 C         1.433208         0.161681        -0.003244
 C         2.295763         1.432147        -0.029123
 C         3.439593         0.421747         0.496569
 O         4.512790         0.663119         1.407914
 C         3.705167        -0.519139        -0.666626
 C         2.278619        -1.018785        -0.380647
 O         1.573154        -2.092312        -0.812782
 C         2.312727        -0.502253         1.037845
 H        -0.710258         0.678416         0.229324
 H        -0.262038         0.124521        -1.418278
 H        -0.346528        -1.051416        -0.073034
 H         2.509352         2.028554        -1.017486
 H         1.916138         2.108656         0.736308
 H         4.679750         1.687935         1.572204
 H         3.941852        -0.077363        -1.638922
 H         4.467778        -1.225673        -0.560503
 H         1.600957        -2.014909        -1.777160
 H         2.317111        -1.219022         1.965000
