19
Iteration:  4407
 C        -0.118490         0.310004        -0.322603
 C         1.350865         0.169677         0.049317
 C         2.332152         1.411918         0.063647
 C         3.469206         0.381075         0.500774
 O         4.513556         0.957999         1.265601
 C         3.715511        -0.621744        -0.545323
 C         2.277738        -1.086032        -0.370603
 O         1.713691        -2.432281        -0.888966
 C         2.203043        -0.602596         1.002465
 H        -0.556874         0.918070         0.515577
 H        -0.147521         0.984955        -1.203357
 H        -0.756015        -0.511019        -0.467816
 H         2.565885         2.000507        -0.778208
 H         2.122423         2.049120         0.949200
 H         5.364090         0.768124         0.834445
 H         4.001310        -0.151961        -1.573518
 H         4.438626        -1.319088        -0.180623
 H         1.016593        -2.421085        -1.592132
 H         1.868584        -0.855380         2.062720
