19
Iteration:  1998
 C         0.027802         0.273985        -0.304558
 C         1.440391         0.086600         0.064986
 C         2.396277         1.376293        -0.066032
 C         3.350195         0.427136         0.583300
 O         4.512416         0.918375         1.212534
 C         3.689733        -0.746376        -0.527968
 C         2.303321        -1.104390        -0.347962
 O         1.615173        -2.199655        -1.032023
 C         2.222199        -0.605686         1.124803
 H        -0.517104         0.896696         0.381258
 H        -0.081689         0.830827        -1.313418
 H        -0.467390        -0.828556        -0.328969
 H         2.576277         1.766398        -1.072405
 H         2.071928         2.196988         0.604053
 H         4.340192         1.546855         1.887540
 H         4.135452        -0.376803        -1.422085
 H         4.311599        -1.499638        -0.002206
 H         0.638557        -2.009175        -0.988527
 H         2.109255        -1.089417         2.159959
