19
Iteration:   376charge 0 multiplicity 1
 C        -0.048361         0.253347        -0.102636
 C         1.453428         0.121898         0.012374
 C         2.392801         1.324040         0.101434
 C         3.425730         0.373706         0.486055
 O         4.357802         0.958314         1.316548
 C         3.620908        -0.580664        -0.719152
 C         2.360191        -1.134391        -0.394836
 O         1.610006        -2.172265        -1.002059
 C         2.335089        -0.657144         0.975561
 H        -0.324879         1.013941         0.653200
 H        -0.435765         0.644122        -1.036302
 H        -0.554069        -0.651873         0.181858
 H         2.608570         1.859835        -0.839388
 H         2.175994         1.905764         0.940163
 H         5.259825         1.232996         0.958590
 H         3.675829        -0.147215        -1.738097
 H         4.461255        -1.276039        -0.605288
 H         1.540828        -3.041665        -0.532762
 H         1.936531        -1.093770         1.795690
