19
Iteration:  3830
 C        -0.008044         0.145569        -0.179450
 C         1.473217         0.201092         0.038350
 C         2.473070         1.318557        -0.173925
 C         3.350637         0.413831         0.549078
 O         4.466883         0.844571         1.207713
 C         3.684986        -0.759026        -0.517554
 C         2.205273        -1.046473        -0.347560
 O         1.722995        -2.189276        -1.029201
 C         2.201259        -0.460085         1.183520
 H        -0.509160         0.690575         0.700327
 H        -0.415443         0.650814        -1.101249
 H        -0.346603        -0.854768        -0.294623
 H         2.740996         1.593956        -1.217459
 H         2.017415         2.169134         0.344618
 H         4.220402         1.443101         1.925432
 H         3.986509        -0.572049        -1.550088
 H         4.522301        -1.370503        -0.099254
 H         0.805536        -1.995395        -1.310905
 H         1.696458        -0.575890         2.231611
