19
Iteration:  3012
 C        -0.149360         0.244160        -0.215030
 C         1.418743         0.231399        -0.082486
 C         2.347561         1.387731        -0.053306
 C         3.484230         0.360914         0.500340
 O         4.547911         0.686377         1.308941
 C         3.632811        -0.570026        -0.704995
 C         2.203048        -1.005235        -0.427556
 O         1.807493        -2.284883        -0.676417
 C         2.166005        -0.503344         0.984670
 H        -0.572004         0.897096         0.522553
 H        -0.424358         0.932178        -1.038134
 H        -0.558280        -0.790114        -0.300983
 H         2.490227         2.052767        -0.980741
 H         1.810521         1.969729         0.680740
 H         4.139945         1.080328         2.067625
 H         3.859220        -0.149270        -1.679697
 H         4.531440        -1.183327        -0.649559
 H         2.028244        -2.458586        -1.604207
 H         2.091058        -1.100883         1.967750
