19
Iteration:  4272charge 0 multiplicity 1
 C        -0.031128         0.311451        -0.290600
 C         1.368617         0.127659         0.040485
 C         2.412899         1.256066        -0.022755
 C         3.504846         0.324280         0.588284
 O         4.452961         1.065167         1.266560
 C         3.629929        -0.757605        -0.653002
 C         2.187651        -1.087047        -0.343645
 O         1.764199        -2.224544        -0.968167
 C         2.183904        -0.493688         1.119114
 H        -0.422184         1.207653         0.159838
 H        -0.210533         0.348182        -1.376984
 H        -0.659770        -0.574593         0.102049
 H         2.539184         1.652679        -1.013949
 H         2.303901         2.087955         0.712271
 H         5.041457         0.423494         1.562528
 H         3.864030        -0.251322        -1.655454
 H         4.395363        -1.605858        -0.351198
 H         0.774044        -2.222677        -1.049646
 H         2.133645        -1.251226         2.001370
