19
Iteration:  1079
 C        -0.100521         0.223805         0.009415
 C         1.423524         0.171747         0.085870
 C         2.380739         1.329039        -0.125691
 C         3.460779         0.384622         0.504690
 O         4.302122         0.975584         1.382615
 C         3.745033        -0.577149        -0.674625
 C         2.344647        -1.174099        -0.414191
 O         1.604460        -2.200618        -0.999996
 C         2.346230        -0.666106         1.020079
 H        -0.557101         0.812252         0.809845
 H        -0.394186         0.583472        -1.024951
 H        -0.545249        -0.797620         0.045281
 H         2.817379         1.703234        -1.205440
 H         2.168194         2.161925         0.511989
 H         5.238410         0.822987         1.196658
 H         3.863643        -0.150441        -1.710650
 H         4.437715        -1.409888        -0.483203
 H         1.442712        -1.954892        -1.921989
 H         2.121815        -1.042557         1.921635
