19
Iteration:  1811
 C        -0.059548         0.284134        -0.166448
 C         1.402662         0.218267        -0.044915
 C         2.407933         1.326527        -0.086583
 C         3.397163         0.353926         0.527192
 O         4.495848         0.862728         1.294639
 C         3.683985        -0.644756        -0.631115
 C         2.245513        -1.062824        -0.393464
 O         1.751254        -2.249458        -0.846642
 C         2.205133        -0.584303         0.998437
 H        -0.524288         0.603450         0.709738
 H        -0.327902         1.100148        -0.870183
 H        -0.492091        -0.716266        -0.452269
 H         2.752051         1.686498        -1.084771
 H         2.159278         2.210043         0.610936
 H         4.254086         0.952579         2.270715
 H         3.985780        -0.385568        -1.651285
 H         4.247775        -1.550884        -0.450041
 H         1.022445        -1.891771        -1.434370
 H         1.895449        -1.085733         1.865247
