19
Iteration:  2750
 C        -0.028926         0.117100        -0.233929
 C         1.488131         0.140963        -0.002066
 C         2.370278         1.414573        -0.038294
 C         3.401530         0.416208         0.558662
 O         4.472218         0.998424         1.292150
 C         3.690936        -0.650712        -0.610261
 C         2.270426        -1.090073        -0.416829
 O         1.563658        -2.202726        -0.909157
 C         2.292985        -0.637275         1.081373
 H        -0.478176         0.918285         0.292044
 H        -0.255268         0.152503        -1.310351
 H        -0.650499        -0.725445         0.095827
 H         2.635833         1.688863        -1.086694
 H         2.049763         2.037354         0.753769
 H         5.212283         0.290751         1.403946
 H         4.004981        -0.117980        -1.509073
 H         4.304958        -1.407887        -0.059870
 H         1.196897        -1.719420        -1.698190
 H         1.891442        -0.943152         2.048916
