19
Iteration:  1258
 C        -0.117550        -0.048422        -0.002164
 C         1.367299         0.246922        -0.003778
 C         2.367390         1.511180        -0.214640
 C         3.409127         0.458998         0.534411
 O         4.601865         0.647210         1.287472
 C         3.684625        -0.627800        -0.546083
 C         2.201608        -0.993860        -0.375575
 O         1.739147        -2.226703        -0.989464
 C         2.160465        -0.378870         1.003855
 H        -0.583204         0.484302         0.843198
 H        -0.687313         0.334824        -0.889735
 H        -0.130537        -1.148009         0.053074
 H         2.580016         1.661192        -1.199693
 H         2.149055         2.369246         0.381866
 H         4.539085         1.429648         1.944796
 H         3.896570        -0.416239        -1.616562
 H         4.341571        -1.332606        -0.002429
 H         1.833901        -1.946936        -1.895536
 H         2.043666        -0.755993         1.976707
