19
Iteration:  3575charge 0 multiplicity 1
 C        -0.079836         0.240823        -0.271444
 C         1.413881         0.194585        -0.088206
 C         2.355439         1.329427         0.005704
 C         3.434186         0.380874         0.505313
 O         4.549485         0.798684         1.238446
 C         3.676555        -0.631317        -0.636484
 C         2.216007        -1.021242        -0.381416
 O         1.672842        -2.163128        -0.755119
 C         2.224524        -0.650256         1.077625
 H        -0.588521         0.993119         0.292532
 H        -0.373266         0.196259        -1.341478
 H        -0.422024        -0.705638        -0.040191
 H         2.531009         1.798243        -0.962618
 H         2.082837         2.060670         0.717049
 H         4.223332         1.677325         1.693235
 H         4.035673        -0.290171        -1.619675
 H         4.391767        -1.429473        -0.354627
 H         2.022399        -2.100815        -1.685629
 H         1.964124        -1.057891         2.159136
