19
Iteration:  3900charge 0 multiplicity 1
 C        -0.070352         0.319459        -0.301787
 C         1.450429         0.219584        -0.061387
 C         2.345134         1.406798        -0.000649
 C         3.486624         0.398499         0.549493
 O         4.510365         0.798735         1.339073
 C         3.636990        -0.602673        -0.708440
 C         2.214970        -1.079109        -0.452324
 O         1.677405        -2.323038        -0.693535
 C         2.260158        -0.605740         0.994720
 H        -0.610705         1.159047         0.088728
 H        -0.323192         0.198826        -1.365712
 H        -0.468428        -0.715348         0.047926
 H         2.539639         2.011145        -0.839348
 H         2.076371         2.097741         0.847963
 H         4.222541         1.556020         1.811847
 H         3.879830        -0.278059        -1.786244
 H         4.448482        -1.329030        -0.553877
 H         1.743316        -2.586852        -1.628115
 H         1.916625        -0.983494         1.941230
