19
Iteration:  1593charge 0 multiplicity 1
 C        -0.063209         0.332883        -0.083484
 C         1.395569         0.205983        -0.083899
 C         2.433798         1.406661        -0.038205
 C         3.409106         0.417775         0.561064
 O         4.520886         0.813188         1.282945
 C         3.651037        -0.643149        -0.572845
 C         2.188200        -1.087990        -0.424037
 O         1.796440        -2.387584        -0.962592
 C         2.140948        -0.535217         0.993657
 H        -0.383845         0.985900         0.790855
 H        -0.470492         0.643807        -1.086405
 H        -0.758713        -0.525524         0.134737
 H         2.640665         1.921252        -0.960076
 H         2.079569         2.214839         0.634499
 H         4.296428         1.514463         1.872999
 H         3.842859        -0.444700        -1.657776
 H         4.264731        -1.473461        -0.144252
 H         2.265902        -2.429746        -1.797233
 H         1.598787        -0.959869         1.975269
