19
Iteration:  2898charge 0 multiplicity 1
 C        -0.058213         0.126938        -0.278345
 C         1.381645         0.112274        -0.025855
 C         2.373675         1.369084        -0.004704
 C         3.392955         0.386775         0.564916
 O         4.560690         0.839104         1.226946
 C         3.656200        -0.647019        -0.589403
 C         2.275797        -1.049599        -0.301458
 O         1.636639        -2.186186        -0.928847
 C         2.258601        -0.545071         1.116847
 H        -0.516200         0.945989         0.306526
 H        -0.285099         0.512704        -1.231353
 H        -0.607552        -0.777014        -0.140665
 H         2.569276         1.936124        -0.871275
 H         1.918359         2.085727         0.761148
 H         4.820295         1.777307         1.298950
 H         3.944764        -0.124315        -1.456606
 H         4.440137        -1.324531        -0.337113
 H         1.465135        -1.985440        -1.848993
 H         2.039504        -1.113885         2.089152
