19
Iteration:  3335
 C        -0.070007         0.298879        -0.184553
 C         1.411634         0.119632        -0.039880
 C         2.396143         1.407445         0.031411
 C         3.431773         0.378983         0.501221
 O         4.462335         0.789949         1.233008
 C         3.729561        -0.561270        -0.640079
 C         2.289564        -1.011481        -0.445820
 O         1.643420        -2.289388        -0.739637
 C         2.213323        -0.635008         0.951122
 H        -0.365182         1.406170        -0.139305
 H        -0.214720         0.106351        -1.301125
 H        -0.640114        -0.365952         0.434585
 H         2.404395         1.979840        -0.845758
 H         2.008288         2.037785         0.767112
 H         4.217688         1.579407         1.866329
 H         4.040829        -0.161264        -1.595640
 H         4.426829        -1.314951        -0.232855
 H         1.783689        -2.514794        -1.683724
 H         2.134707        -1.306626         1.877559
