19
Iteration:  4466
 C        -0.030667         0.058556        -0.156068
 C         1.420835         0.213042        -0.004249
 C         2.370822         1.474149        -0.120709
 C         3.435877         0.482660         0.490742
 O         4.496684         0.844940         1.399854
 C         3.794550        -0.609835        -0.682271
 C         2.267398        -1.086511        -0.395194
 O         1.498451        -2.318926        -0.959726
 C         2.280398        -0.464049         1.104700
 H        -0.359611         0.959422         0.321734
 H        -0.303619         0.066464        -1.202862
 H        -0.347158        -0.901941         0.395390
 H         2.706427         1.827369        -1.179217
 H         2.051075         2.357463         0.393045
 H         4.153604         0.703948         2.278156
 H         4.119267        -0.252186        -1.627214
 H         4.389278        -1.455731        -0.245836
 H         1.352449        -2.121574        -1.905493
 H         2.155475        -0.985322         2.007614
