19
Iteration:  2897charge 0 multiplicity 1
 C        -0.069071         0.126117        -0.283133
 C         1.382557         0.120679        -0.029058
 C         2.371096         1.364775        -0.000281
 C         3.400865         0.388123         0.561246
 O         4.560162         0.834872         1.231442
 C         3.662921        -0.643566        -0.590947
 C         2.272081        -1.041362        -0.290308
 O         1.637270        -2.188222        -0.923631
 C         2.263124        -0.544448         1.105207
 H        -0.486192         0.936106         0.303595
 H        -0.293759         0.528980        -1.229867
 H        -0.620960        -0.797452        -0.145217
 H         2.567653         1.933811        -0.877010
 H         1.894288         2.077776         0.766447
 H         4.794312         1.746350         1.266380
 H         3.943850        -0.119088        -1.477517
 H         4.447070        -1.333825        -0.343610
 H         1.460013        -1.998048        -1.851713
 H         2.045994        -1.144249         2.114609
