19
Iteration:  2855charge 0 multiplicity 1
 C         0.000158         0.229260        -0.236601
 C         1.438261         0.188635        -0.061105
 C         2.354199         1.471817         0.029020
 C         3.428016         0.362439         0.488610
 O         4.385337         0.722209         1.426126
 C         3.654159        -0.490895        -0.758737
 C         2.228428        -1.029569        -0.517753
 O         1.718044        -2.360218        -0.638444
 C         2.300299        -0.540338         0.930304
 H        -0.613885         0.695645         0.647433
 H        -0.390682         0.814593        -1.111111
 H        -0.419392        -0.772415        -0.327507
 H         2.589811         2.005823        -0.876236
 H         2.037193         2.266118         0.786281
 H         4.898679         1.540895         1.039159
 H         3.831277        -0.257220        -1.819427
 H         4.357753        -1.284073        -0.567095
 H         1.398307        -2.358551        -1.548141
 H         2.126820        -1.319010         1.823182
