19
Iteration:   161charge 0 multiplicity 1
 C        -0.144112         0.098981        -0.107873
 C         1.384382         0.156136         0.121114
 C         2.361624         1.308210         0.033756
 C         3.443350         0.405712         0.526981
 O         4.553719         0.780884         1.305168
 C         3.651558        -0.498546        -0.851285
 C         2.298473        -1.034075        -0.405321
 O         1.620620        -2.165078        -0.900199
 C         2.391002        -0.568659         0.997463
 H        -0.722541         0.747744         0.559131
 H        -0.326032         0.038901        -1.221065
 H        -0.489832        -0.890731         0.213505
 H         2.514788         1.667159        -1.031990
 H         2.102089         2.164288         0.800589
 H         3.983586         1.277945         1.919034
 H         3.871656         0.042456        -1.846467
 H         4.419316        -1.319944        -0.758399
 H         1.333432        -1.841460        -1.751535
 H         2.208571        -0.727513         1.982523
