19
Iteration:  1415charge 0 multiplicity 1
 C        -0.054334         0.082198        -0.023341
 C         1.467685         0.218286        -0.077298
 C         2.397751         1.399122        -0.132761
 C         3.485859         0.392088         0.518351
 O         4.433690         0.889689         1.438395
 C         3.744381        -0.700381        -0.612067
 C         2.260734        -1.061137        -0.500811
 O         1.509633        -2.186814        -0.915942
 C         2.279982        -0.521738         0.975868
 H        -0.529103         0.642514         0.830499
 H        -0.577741         0.649343        -0.859172
 H        -0.373098        -1.032880        -0.081990
 H         2.651776         1.786117        -1.076806
 H         2.059361         2.215883         0.563706
 H         4.479640         1.820107         1.204396
 H         4.253345        -0.452407        -1.592014
 H         4.370124        -1.504086        -0.161461
 H         1.837791        -2.512858        -1.775718
 H         2.056963        -1.128096         1.937751
