19
Iteration:  3708
 C        -0.070789         0.153287        -0.290407
 C         1.390191         0.187127        -0.025568
 C         2.351131         1.416414        -0.011751
 C         3.379305         0.364825         0.579842
 O         4.612387         0.819389         1.166942
 C         3.737675        -0.684952        -0.514022
 C         2.301809        -1.100119        -0.343632
 O         1.600851        -2.141073        -0.920846
 C         2.119163        -0.530994         1.035995
 H        -0.583023         0.967221         0.362399
 H        -0.356331         0.458400        -1.356247
 H        -0.497690        -0.793722         0.023285
 H         2.788257         1.873186        -0.909522
 H         2.082964         2.177804         0.682013
 H         4.484794         1.668586         1.734476
 H         4.003075        -0.211571        -1.485385
 H         4.548822        -1.343149        -0.216923
 H         2.083809        -2.996380        -0.782790
 H         1.841469        -0.892946         1.958106
