19
Iteration:  2041
 C        -0.083131         0.193961        -0.355616
 C         1.429935         0.232962        -0.069690
 C         2.409112         1.426556         0.019027
 C         3.423635         0.347784         0.545654
 O         4.518922         0.736613         1.300473
 C         3.757502        -0.571380        -0.659913
 C         2.246369        -1.067960        -0.389241
 O         1.616993        -2.267699        -0.686256
 C         2.189345        -0.525437         1.002849
 H        -0.776384         0.444949         0.412228
 H        -0.296798         1.019977        -1.095409
 H        -0.467542        -0.791039        -0.798885
 H         2.796291         1.994377        -0.905075
 H         1.979252         2.158212         0.716714
 H         4.366062         1.617798         1.707365
 H         3.960434        -0.121169        -1.628053
 H         4.531305        -1.354978        -0.505065
 H         1.540027        -2.408346        -1.675858
 H         2.033286        -1.079833         1.958446
