19
Iteration:  4361charge 0 multiplicity 1
 C        -0.117480         0.222956        -0.203099
 C         1.394028         0.150747        -0.017912
 C         2.501332         1.476289        -0.138183
 C         3.401070         0.382412         0.480183
 O         4.428922         0.713021         1.409187
 C         3.726891        -0.500043        -0.774928
 C         2.256252        -1.043055        -0.408015
 O         1.655542        -2.333739        -0.695871
 C         2.239932        -0.515120         1.022899
 H        -0.676445         0.624357         0.651527
 H        -0.347221         0.756138        -1.149077
 H        -0.311564        -0.825818        -0.339660
 H         2.551608         1.774321        -1.122112
 H         2.229197         2.307314         0.546670
 H         4.472582         1.609167         1.600466
 H         4.137938         0.041823        -1.712583
 H         4.381660        -1.366600        -0.466193
 H         1.713124        -2.575194        -1.656352
 H         1.983100        -1.083672         1.835119
