19
Iteration:  3840
 C        -0.016969         0.167006        -0.204645
 C         1.445584         0.129524         0.009486
 C         2.373222         1.319690        -0.178713
 C         3.482435         0.394608         0.565003
 O         4.582370         0.911089         1.229797
 C         3.641410        -0.721728        -0.478423
 C         2.233192        -1.132300        -0.332675
 O         1.701021        -2.188722        -1.068454
 C         2.118883        -0.441995         1.169324
 H        -0.488525         0.702388         0.698320
 H        -0.132917         0.775533        -1.145260
 H        -0.561544        -0.711989        -0.123347
 H         2.594859         1.541709        -1.304797
 H         2.006250         2.191712         0.374429
 H         4.375851         1.527824         2.014369
 H         3.771289        -0.440931        -1.477697
 H         4.296896        -1.408851         0.081919
 H         0.802282        -2.089050        -1.452719
 H         1.792682        -0.798367         2.272703
