19
Iteration:  1723
 C        -0.162029         0.209489        -0.236051
 C         1.346532         0.194675         0.039276
 C         2.417594         1.452714        -0.025727
 C         3.435037         0.384813         0.600244
 O         4.554037         0.859722         1.307358
 C         3.675647        -0.681697        -0.566464
 C         2.251300        -1.044642        -0.356472
 O         1.745026        -2.267528        -0.961145
 C         2.165265        -0.569947         1.027871
 H        -0.548909         1.098618         0.165808
 H        -0.379169         0.392729        -1.307073
 H        -0.769835        -0.690612         0.056321
 H         2.785942         1.598113        -1.034374
 H         2.135579         2.381549         0.618511
 H         5.344396         0.460943         0.890605
 H         3.863505        -0.181489        -1.561524
 H         4.350918        -1.497721        -0.266041
 H         1.279034        -2.020541        -1.813715
 H         1.915382        -0.933182         2.049469
