19
Iteration:  1354
 C        -0.159463         0.253285        -0.316073
 C         1.344306         0.215061         0.065994
 C         2.349561         1.353964         0.033030
 C         3.442152         0.410080         0.575095
 O         4.553497         0.843923         1.248650
 C         3.615910        -0.486740        -0.736604
 C         2.250254        -1.057404        -0.337711
 O         1.798748        -2.325072        -0.803423
 C         2.259052        -0.614552         1.066141
 H        -0.705284         0.991099         0.321472
 H        -0.125015         0.617350        -1.407790
 H        -0.643941        -0.688084        -0.305029
 H         2.520432         1.839099        -1.047103
 H         2.020186         2.046409         0.806579
 H         5.169339         0.034249         1.293002
 H         3.663996         0.161647        -1.611630
 H         4.421928        -1.205324        -0.588517
 H         1.164870        -2.328610        -1.527501
 H         1.974708        -1.223944         1.875299
