19
Iteration:  3415charge 0 multiplicity 1
 C        -0.098003         0.186400        -0.213310
 C         1.398972         0.097151        -0.034808
 C         2.391308         1.353785        -0.076612
 C         3.450673         0.416397         0.496464
 O         4.578604         0.855938         1.288057
 C         3.747052        -0.667661        -0.558588
 C         2.240421        -1.003186        -0.364201
 O         1.652378        -2.210405        -0.913423
 C         2.224244        -0.535170         0.992105
 H        -0.523827         0.687979         0.716334
 H        -0.324032         0.555313        -1.204903
 H        -0.672673        -0.810211        -0.284398
 H         2.691865         1.869803        -1.047396
 H         2.123785         1.990079         0.689159
 H         4.148430         1.493608         1.988183
 H         4.090600        -0.495336        -1.589367
 H         4.369567        -1.368398        -0.001056
 H         0.691454        -2.013302        -0.956117
 H         1.777401        -0.983726         1.915649
