19
Iteration:    42charge 0 multiplicity 1
 C        -0.132436         0.135629        -0.061788
 C         1.361577         0.137580         0.005999
 C         2.278596         1.353978         0.072566
 C         3.504666         0.429212         0.467215
 O         4.579023         0.834955         1.369863
 C         3.693830        -0.595573        -0.863986
 C         2.333217        -1.097132        -0.453561
 O         1.654448        -2.189200        -0.815358
 C         2.283800        -0.609589         0.944985
 H        -0.605863         0.495959         0.884956
 H        -0.546797         0.876311        -0.833326
 H        -0.554877        -0.873702        -0.240203
 H         2.348432         2.040254        -0.766374
 H         2.035217         2.148142         0.891595
 H         4.610204         1.806128         1.262706
 H         3.749884         0.001293        -1.833879
 H         4.423822        -1.423361        -0.659078
 H         1.229846        -1.930471        -1.689104
 H         2.017559        -1.102813         1.898198
