19
Iteration:   521
 C        -0.051445         0.215444        -0.174069
 C         1.423107         0.153534         0.054828
 C         2.314110         1.384712         0.053613
 C         3.435898         0.395880         0.544807
 O         4.541747         0.976232         1.247777
 C         3.605263        -0.567986        -0.650526
 C         2.223493        -1.115311        -0.412894
 O         1.585085        -2.230140        -1.053578
 C         2.369354        -0.629109         1.052452
 H        -0.534629         1.113259         0.248090
 H        -0.271671         0.193669        -1.284330
 H        -0.553558        -0.712842         0.184597
 H         2.572814         1.940443        -0.897817
 H         2.025888         2.096238         0.905326
 H         4.698884         0.408922         1.977672
 H         3.708278        -0.096511        -1.699498
 H         4.548686        -1.256385        -0.566164
 H         1.923703        -3.054439        -0.636127
 H         2.323087        -1.177017         2.151581
