19
Iteration:   199
 C        -0.088104         0.161872        -0.042719
 C         1.407705         0.154054        -0.051894
 C         2.287505         1.391485         0.151620
 C         3.389623         0.379637         0.573923
 O         4.566929         0.765078         1.170512
 C         3.626456        -0.541919        -0.632709
 C         2.288331        -1.064376        -0.486668
 O         1.790236        -2.210021        -1.019239
 C         2.266891        -0.551460         1.004466
 H        -0.565530         0.687929         0.788494
 H        -0.509160         0.664148        -0.882817
 H        -0.462213        -0.881905        -0.004876
 H         2.531352         1.956075        -0.734411
 H         1.838786         2.046638         0.828286
 H         4.742141         1.730912         0.943227
 H         3.935894        -0.299732        -1.581236
 H         4.187322        -1.309240        -0.153022
 H         0.843925        -2.151834        -0.750092
 H         1.927414        -1.053104         2.041456
