19
Iteration:  2419charge 0 multiplicity 1
 C        -0.181191         0.197170        -0.192814
 C         1.423554         0.176976        -0.077551
 C         2.361469         1.425165        -0.007595
 C         3.437058         0.369765         0.552598
 O         4.500184         0.845805         1.340970
 C         3.707060        -0.633536        -0.598640
 C         2.205492        -1.071740        -0.394977
 O         1.777700        -2.328896        -0.900609
 C         2.234196        -0.481052         1.027196
 H        -0.762753         0.783290         0.539178
 H        -0.551125         0.758694        -1.155743
 H        -0.445685        -0.823186        -0.295430
 H         2.676004         1.848113        -0.968347
 H         2.052111         2.177701         0.738867
 H         5.259085         1.119390         0.743431
 H         3.949473        -0.189786        -1.642278
 H         4.429641        -1.345133        -0.242981
 H         1.011742        -2.066287        -1.416720
 H         1.999904        -0.904340         2.082427
