19
Iteration:  2129charge 0 multiplicity 1
 C        -0.032553         0.263665        -0.193597
 C         1.422422         0.134015        -0.052341
 C         2.424325         1.285143        -0.084239
 C         3.461848         0.388574         0.534982
 O         4.448839         0.916908         1.322996
 C         3.808355        -0.668545        -0.495057
 C         2.305855        -1.075988        -0.442582
 O         1.517702        -2.184762        -1.034074
 C         2.229010        -0.565354         1.045830
 H        -0.285461         1.112502         0.291635
 H        -0.333937         0.193253        -1.230077
 H        -0.523171        -0.514521         0.444661
 H         2.480480         1.899091        -1.053071
 H         1.941844         2.038698         0.560854
 H         4.065264         1.773994         1.701917
 H         4.270640        -0.361288        -1.422802
 H         4.372412        -1.576642        -0.118668
 H         1.403120        -2.905882        -0.362282
 H         2.026009        -1.081008         1.917127
