19
Iteration:  3308charge 0 multiplicity 1
 C        -0.139745         0.381119        -0.156073
 C         1.372469         0.145938        -0.137084
 C         2.435019         1.337885        -0.003641
 C         3.461659         0.414006         0.504029
 O         4.524079         0.855336         1.365731
 C         3.670016        -0.595496        -0.776515
 C         2.285670        -1.109483        -0.387831
 O         1.723656        -2.411202        -0.780365
 C         2.205143        -0.538189         0.969568
 H        -0.459275         1.338353         0.167263
 H        -0.440804         0.318273        -1.197807
 H        -0.572842        -0.427102         0.490580
 H         2.540258         2.029914        -0.872207
 H         1.939184         2.028082         0.785071
 H         4.146788         1.292450         2.216948
 H         3.945210        -0.174505        -1.802060
 H         4.412749        -1.297846        -0.370665
 H         1.422508        -2.221767        -1.688781
 H         1.940673        -1.004161         1.876692
