19
Iteration:  3953charge 0 multiplicity 1
 C        -0.042821         0.119572        -0.256724
 C         1.412515         0.253373        -0.006236
 C         2.349062         1.493755        -0.126296
 C         3.421291         0.440989         0.553574
 O         4.568791         0.721611         1.237059
 C         3.659034        -0.669154        -0.584648
 C         2.189514        -1.017601        -0.390563
 O         1.687989        -2.241759        -0.783791
 C         2.167000        -0.485121         0.993544
 H        -0.521985         0.742689         0.534358
 H        -0.340427         0.438811        -1.264699
 H        -0.587353        -0.903709        -0.220026
 H         2.795965         1.944922        -1.063965
 H         2.035428         2.295469         0.643724
 H         4.399791         0.882211         2.126801
 H         4.060530        -0.467855        -1.579575
 H         4.252272        -1.364219         0.031997
 H         2.291882        -2.528137        -1.499758
 H         1.949130        -0.917447         1.964933
