19
Iteration:  2822charge 0 multiplicity 1
 C        -0.139498         0.292909        -0.107489
 C         1.368880         0.098820        -0.081354
 C         2.330297         1.445828        -0.113498
 C         3.447969         0.350846         0.494772
 O         4.398769         0.756653         1.446936
 C         3.752104        -0.532804        -0.709164
 C         2.322580        -1.086268        -0.395666
 O         1.749081        -2.337706        -0.811048
 C         2.243500        -0.450247         0.971205
 H        -0.430834         0.870026         0.919419
 H        -0.403516         0.852502        -1.077572
 H        -0.713088        -0.662197        -0.113538
 H         2.568475         1.779441        -1.116813
 H         2.007374         2.239158         0.671252
 H         5.238773         0.994742         0.988840
 H         3.733489        -0.123883        -1.773644
 H         4.512626        -1.311781        -0.497782
 H         1.578191        -2.328271        -1.799848
 H         1.944251        -1.020898         2.050423
