19
Iteration:  2355
 C        -0.059023         0.207566        -0.251394
 C         1.361818         0.190951        -0.013543
 C         2.419062         1.406053         0.072131
 C         3.486429         0.410061         0.464827
 O         4.484524         0.809236         1.387573
 C         3.709922        -0.558913        -0.715373
 C         2.204636        -1.096748        -0.452073
 O         1.613516        -2.321538        -0.786352
 C         2.290314        -0.548724         0.963214
 H        -0.436107         1.256765         0.060840
 H        -0.185211         0.045204        -1.352516
 H        -0.666129        -0.527336         0.260065
 H         2.430364         2.013732        -0.871207
 H         1.840097         2.000482         0.933916
 H         4.457775         1.749706         1.345673
 H         3.956518        -0.033743        -1.656460
 H         4.448476        -1.259552        -0.431018
 H         1.948512        -2.699837        -1.595978
 H         1.991526        -1.050980         2.000652
