19
Iteration:  1448charge 0 multiplicity 1
 C        -0.092825         0.390554        -0.064214
 C         1.423707         0.148385         0.014734
 C         2.397081         1.331902        -0.092550
 C         3.447923         0.251380         0.506597
 O         4.373652         0.911058         1.314967
 C         3.727881        -0.601977        -0.717530
 C         2.343379        -1.135698        -0.407332
 O         1.723890        -2.275018        -0.886030
 C         2.256061        -0.607320         1.025193
 H        -0.407186         1.194565         0.742751
 H        -0.472789         0.797998        -1.111228
 H        -0.767454        -0.588172         0.137885
 H         2.719130         1.583726        -1.050309
 H         2.056978         2.197468         0.546410
 H         3.852883         1.465356         1.875635
 H         3.851080        -0.114583        -1.733197
 H         4.484860        -1.365206        -0.442869
 H         1.420728        -2.093329        -1.832765
 H         1.982473        -1.161388         1.947622
