19
Iteration:  2495charge 0 multiplicity 1
 C        -0.072333         0.272235        -0.157046
 C         1.391319         0.124511        -0.024553
 C         2.353691         1.307036        -0.007896
 C         3.420578         0.333726         0.562685
 O         4.445820         0.996173         1.270028
 C         3.738355        -0.666182        -0.717655
 C         2.265545        -1.055751        -0.364452
 O         1.720478        -2.237066        -0.871408
 C         2.216271        -0.561694         1.009837
 H        -0.353568         0.756687         0.781870
 H        -0.319144         0.812236        -1.170321
 H        -0.612344        -0.654904        -0.158918
 H         2.472331         1.808398        -0.979230
 H         2.185679         1.911662         0.821236
 H         4.356019         0.589764         2.113395
 H         3.994742        -0.179730        -1.750236
 H         4.329820        -1.565221        -0.570171
 H         1.799411        -2.033480        -1.832582
 H         2.037810        -1.204274         1.876877
