19
Iteration:  3229
 C        -0.008194         0.130803        -0.277954
 C         1.404963         0.178827        -0.026172
 C         2.456174         1.350947         0.024376
 C         3.470135         0.406584         0.488786
 O         4.545207         0.934706         1.215564
 C         3.692658        -0.755478        -0.563449
 C         2.247954        -1.100120        -0.363915
 O         1.606390        -2.208461        -0.872889
 C         2.149893        -0.552456         1.059710
 H        -0.491082         0.345262         0.716838
 H        -0.246995         0.845113        -0.988559
 H        -0.403402        -0.812781        -0.668974
 H         2.772221         1.868578        -0.872568
 H         2.080169         2.052778         0.785232
 H         4.175782         1.809227         1.635437
 H         3.937565        -0.178731        -1.488292
 H         4.539833        -1.347422        -0.182562
 H         0.889001        -1.833542        -1.434172
 H         1.677525        -0.856357         2.035432
