19
Iteration:  1658charge 0 multiplicity 1
 C        -0.070079         0.216023        -0.269279
 C         1.453182         0.277715        -0.040398
 C         2.419177         1.342170         0.017830
 C         3.528987         0.396501         0.560803
 O         4.508949         0.862968         1.351210
 C         3.709388        -0.592657        -0.656628
 C         2.192268        -1.086919        -0.453948
 O         1.613010        -2.320699        -0.880642
 C         2.268579        -0.575202         0.974907
 H        -0.508666         0.844487         0.416136
 H        -0.202074         0.495400        -1.308510
 H        -0.460332        -0.810206        -0.181579
 H         2.620678         1.814374        -0.946426
 H         2.019213         2.100271         0.808074
 H         3.969035         1.340913         2.093912
 H         3.743352        -0.029863        -1.575100
 H         4.382444        -1.423759        -0.423753
 H         0.660655        -2.126658        -0.878231
 H         2.129137        -1.188116         1.982869
