19
Iteration:    63
 C        -0.073608         0.175808        -0.054758
 C         1.422930         0.075445         0.020984
 C         2.308599         1.388796        -0.009546
 C         3.410025         0.427767         0.493061
 O         4.473460         0.746795         1.256391
 C         3.651090        -0.471504        -0.686162
 C         2.247956        -1.116172        -0.421530
 O         1.712198        -2.252177        -1.001351
 C         2.401822        -0.534576         1.115282
 H        -0.522328         0.597476         0.868618
 H        -0.401509         0.936401        -0.836005
 H        -0.597122        -0.788488        -0.212446
 H         2.507331         2.018946        -0.889414
 H         1.919781         2.176353         0.718072
 H         4.878059         1.542912         0.911630
 H         3.658768         0.088487        -1.645913
 H         4.455873        -1.174757        -0.400939
 H         0.763671        -2.229694        -1.045857
 H         2.260921        -1.012280         2.079463
