19
Iteration:  2275charge 0 multiplicity 1
 C        -0.061160         0.237404        -0.155441
 C         1.434068         0.114072        -0.030562
 C         2.428772         1.304662        -0.173242
 C         3.388590         0.387166         0.537556
 O         4.419953         0.965206         1.275865
 C         3.709975        -0.674525        -0.576394
 C         2.245079        -1.091005        -0.364046
 O         1.735341        -2.176314        -0.994290
 C         2.248908        -0.559086         1.101168
 H        -0.519475         0.737275         0.650298
 H        -0.318862         0.947509        -1.031079
 H        -0.452121        -0.771992        -0.254806
 H         2.487050         1.861477        -1.149872
 H         2.343227         2.121493         0.711725
 H         4.372434         0.567378         2.109577
 H         4.092851        -0.379503        -1.599596
 H         4.333175        -1.530514        -0.239615
 H         0.877853        -2.415151        -0.633101
 H         1.886408        -0.950255         1.972094
