19
Iteration:   235charge 0 multiplicity 1
 C        -0.113116         0.296011         0.015858
 C         1.404436         0.149108         0.039378
 C         2.329603         1.351548         0.054514
 C         3.461514         0.375996         0.536760
 O         4.460902         0.908622         1.343748
 C         3.564438        -0.624889        -0.748175
 C         2.264244        -1.072315        -0.415369
 O         1.789697        -2.268998        -1.125627
 C         2.290565        -0.620270         0.994370
 H        -0.476503         0.782706         0.959848
 H        -0.333332         0.951530        -0.866905
 H        -0.633128        -0.632724        -0.186715
 H         2.632763         1.754368        -0.919625
 H         2.020575         2.064717         0.768401
 H         4.891994         1.608657         0.747616
 H         3.878647        -0.236521        -1.741475
 H         4.356189        -1.370855        -0.409907
 H         1.342289        -2.818095        -0.423431
 H         2.204645        -1.173221         1.967052
