19
Iteration:  4335charge 0 multiplicity 1
 C        -0.095853         0.103388        -0.150917
 C         1.427711         0.251544        -0.136393
 C         2.437301         1.446339        -0.091782
 C         3.436403         0.380795         0.466189
 O         4.516427         0.808403         1.394679
 C         3.706878        -0.676227        -0.630593
 C         2.220988        -1.059609        -0.416591
 O         1.651695        -2.231296        -0.768737
 C         2.227695        -0.475673         0.908270
 H        -0.465073         0.797056         0.612212
 H        -0.543886         0.388365        -1.113030
 H        -0.267176        -1.005439         0.158738
 H         2.460177         1.950450        -1.104585
 H         2.215464         2.156096         0.698236
 H         4.155945         1.114658         2.212249
 H         4.007997        -0.250538        -1.589889
 H         4.361792        -1.541652        -0.349440
 H         1.578265        -2.369045        -1.743476
 H         1.789929        -0.691792         1.945780
