19
Iteration:  1209
 C        -0.037859         0.270648        -0.186331
 C         1.498263         0.101383         0.036735
 C         2.382270         1.351553         0.063209
 C         3.415087         0.378772         0.542333
 O         4.400018         0.943510         1.322405
 C         3.676281        -0.575461        -0.787907
 C         2.260739        -1.056717        -0.470596
 O         1.658150        -2.276508        -0.753904
 C         2.286304        -0.705136         0.979594
 H        -0.567230         0.920799         0.532239
 H        -0.259980         0.833454        -1.135671
 H        -0.481331        -0.753663        -0.274353
 H         2.428865         1.903169        -0.895945
 H         1.935869         1.935684         0.872009
 H         4.830404         1.677946         0.922882
 H         4.006387         0.042778        -1.662069
 H         4.374536        -1.377909        -0.511407
 H         1.277133        -2.149375        -1.670698
 H         2.064644        -1.462731         1.734579
