19
Iteration:  2719charge 0 multiplicity 1
 C        -0.171084         0.179988        -0.335107
 C         1.379658         0.159783         0.039300
 C         2.404607         1.392822         0.012322
 C         3.435532         0.331436         0.482584
 O         4.503446         0.867428         1.325849
 C         3.673207        -0.551734        -0.763972
 C         2.305010        -1.009890        -0.378754
 O         1.685800        -2.282706        -0.737940
 C         2.309788        -0.564270         1.013694
 H        -0.671232         1.030769         0.182730
 H        -0.263611         0.359871        -1.429055
 H        -0.585918        -0.856552        -0.064089
 H         2.524790         2.047726        -0.918172
 H         2.177155         2.122471         0.867116
 H         4.464891         0.268843         2.057965
 H         3.832201         0.029351        -1.704503
 H         4.509489        -1.304702        -0.536918
 H         1.219020        -1.947347        -1.503839
 H         2.042154        -0.936810         1.926908
