19
Iteration:  3808charge 0 multiplicity 1
 C        -0.148793         0.130086        -0.173731
 C         1.415610         0.254825        -0.099251
 C         2.442068         1.392267        -0.169346
 C         3.489839         0.354717         0.483990
 O         4.517353         0.812675         1.351440
 C         3.733467        -0.697943        -0.537121
 C         2.265959        -1.048443        -0.348452
 O         1.695718        -2.215254        -0.875724
 C         2.168963        -0.486330         0.966518
 H        -0.481683         0.800149         0.694346
 H        -0.593976         0.570057        -1.120250
 H        -0.571226        -0.857246        -0.154130
 H         2.545361         1.856022        -1.168990
 H         2.119382         2.135157         0.568253
 H         4.192049         1.547111         1.922936
 H         4.002075        -0.435665        -1.564571
 H         4.484199        -1.437767        -0.113241
 H         0.750057        -2.068975        -1.021412
 H         2.062320        -1.032582         1.990002
