19
Iteration:   867charge 0 multiplicity 1
 C        -0.029246         0.160671        -0.042064
 C         1.395428         0.231390         0.032674
 C         2.308379         1.392026         0.144945
 C         3.387486         0.407823         0.503764
 O         4.452524         0.850504         1.359766
 C         3.724727        -0.460824        -0.832399
 C         2.286830        -1.098878        -0.498269
 O         1.658941        -2.238954        -0.975815
 C         2.272209        -0.606914         0.906512
 H        -0.523879         0.864097         0.703147
 H        -0.412521         0.410952        -1.040657
 H        -0.331596        -0.871790         0.117489
 H         2.275369         2.080418        -0.726103
 H         1.998432         1.730297         1.091162
 H         5.120634         0.235737         1.008935
 H         3.963274         0.053033        -1.761951
 H         4.408529        -1.237726        -0.462480
 H         1.833177        -2.922227        -0.330721
 H         2.043807        -0.993599         1.787833
