19
Iteration:  4380
 C        -0.025371         0.342753        -0.256529
 C         1.396612         0.157523        -0.077655
 C         2.271723         1.309413        -0.050797
 C         3.411827         0.356373         0.528674
 O         4.454281         0.750542         1.349873
 C         3.633233        -0.593542        -0.679264
 C         2.323875        -1.030783        -0.363635
 O         1.754600        -2.261951        -0.704645
 C         2.263193        -0.549911         0.975135
 H        -0.604251         0.712896         0.584800
 H        -0.297738         1.029553        -1.082506
 H        -0.606960        -0.694004        -0.485832
 H         2.632435         1.889410        -0.978398
 H         1.851460         2.020453         0.682078
 H         4.856146         1.535800         0.971462
 H         3.787080        -0.193140        -1.670822
 H         4.547973        -1.249119        -0.442219
 H         1.455097        -2.376274        -1.643069
 H         2.050358        -0.975802         1.962933
