19
Iteration:   977
 C        -0.076022         0.064105        -0.176012
 C         1.434844         0.193438         0.080976
 C         2.369951         1.409556         0.035113
 C         3.382622         0.378368         0.548666
 O         4.440645         0.828340         1.371457
 C         3.696033        -0.472574        -0.762371
 C         2.306133        -0.997277        -0.491058
 O         1.593647        -2.112742        -0.912249
 C         2.314383        -0.656162         0.970225
 H        -0.743624         0.592830         0.557782
 H        -0.373892         0.560740        -1.108609
 H        -0.268682        -1.053049        -0.198188
 H         2.532862         1.757765        -1.082909
 H         2.001747         2.242471         0.724969
 H         5.185060         0.207258         1.132696
 H         3.711190         0.007089        -1.764238
 H         4.554960        -1.168035        -0.573271
 H         1.781207        -2.863904        -0.297456
 H         2.240712        -1.324375         1.915974
