19
Iteration:  3965charge 0 multiplicity 1
 C        -0.167119         0.160059        -0.233728
 C         1.364346         0.222359        -0.093024
 C         2.462742         1.439975        -0.062675
 C         3.409412         0.410274         0.499749
 O         4.592072         0.818679         1.212557
 C         3.687835        -0.727565        -0.487825
 C         2.239003        -1.017218        -0.399620
 O         1.654266        -2.275690        -0.865160
 C         2.195185        -0.405330         1.100756
 H        -0.825656         0.676612         0.460734
 H        -0.394480         0.576927        -1.221032
 H        -0.265804        -1.011292        -0.200304
 H         2.604338         1.998312        -0.986331
 H         2.120811         2.177116         0.759288
 H         4.291294         1.034443         2.180933
 H         4.127275        -0.475614        -1.491060
 H         4.285090        -1.557394        -0.125129
 H         2.161807        -2.531367        -1.675278
 H         1.969607        -1.132581         1.972536
