19
Iteration:  3666
 C        -0.068060         0.188256        -0.156094
 C         1.452058         0.209877         0.006123
 C         2.440617         1.450740        -0.174213
 C         3.433956         0.425109         0.539983
 O         4.488709         0.877503         1.399384
 C         3.650355        -0.721453        -0.610729
 C         2.285972        -1.093275        -0.452583
 O         1.624062        -2.275474        -0.945961
 C         2.276292        -0.559138         0.999013
 H        -0.622882         0.648770         0.681548
 H        -0.402730         0.615221        -1.086735
 H        -0.335480        -0.773659        -0.364767
 H         2.411703         1.768318        -1.158587
 H         2.319377         2.374898         0.485627
 H         4.094299         1.610028         1.928104
 H         3.998100        -0.421177        -1.644309
 H         4.346308        -1.502555        -0.317717
 H         0.817102        -2.338226        -0.401353
 H         2.234687        -0.989692         1.920704
