19
Iteration:  4559charge 0 multiplicity 1
 C        -0.081652         0.382341        -0.298897
 C         1.355875         0.091880         0.041212
 C         2.345692         1.218012         0.040441
 C         3.410357         0.367848         0.532655
 O         4.479590         0.891907         1.125793
 C         3.704413        -0.567658        -0.630242
 C         2.285946        -1.164057        -0.239132
 O         1.769174        -2.243059        -0.886894
 C         2.184895        -0.622744         1.061529
 H        -0.640919         0.858570         0.571717
 H        -0.012444         1.177454        -1.109702
 H        -0.478571        -0.505431        -0.706456
 H         2.524814         2.003935        -0.708654
 H         2.215386         1.936651         0.996694
 H         4.275457         1.434187         1.934141
 H         3.702302        -0.131669        -1.610497
 H         4.418322        -1.334263        -0.550731
 H         1.725979        -1.937312        -1.814776
 H         2.137153        -0.935757         2.203085
