19
Iteration:  1371
 C        -0.064166         0.124925        -0.238702
 C         1.344629         0.158629         0.012709
 C         2.363313         1.485933        -0.018549
 C         3.383238         0.454083         0.542953
 O         4.614470         0.774582         1.302911
 C         3.595936        -0.537263        -0.636927
 C         2.192764        -1.042774        -0.387931
 O         1.754234        -2.305516        -0.856457
 C         2.187318        -0.518383         1.059731
 H        -0.704245         0.752149         0.398572
 H        -0.374107         0.650019        -1.128199
 H        -0.308156        -1.007668        -0.317707
 H         2.532021         1.777404        -0.996319
 H         2.052027         2.254241         0.745105
 H         5.459897         0.434104         0.930355
 H         3.789106        -0.205428        -1.698172
 H         4.293690        -1.359504        -0.361307
 H         1.625480        -2.048342        -1.796325
 H         2.010849        -0.825978         2.210977
