19
Iteration:  3984charge 0 multiplicity 1
 C        -0.134594         0.203408        -0.253044
 C         1.406035         0.179269        -0.054035
 C         2.416370         1.303801        -0.074280
 C         3.477062         0.316782         0.585476
 O         4.574229         0.972297         1.201916
 C         3.764260        -0.728292        -0.510863
 C         2.245263        -1.065534        -0.333656
 O         1.597720        -2.216337        -0.897509
 C         2.142043        -0.558163         1.028605
 H        -0.623201         0.710577         0.620858
 H        -0.528922         0.751044        -1.128297
 H        -0.603163        -0.772428        -0.215515
 H         2.857815         1.859950        -0.988106
 H         2.189794         2.024001         0.740717
 H         4.179154         1.655308         1.867976
 H         4.084950        -0.467843        -1.497926
 H         4.397532        -1.528832        -0.041672
 H         1.941611        -2.051026        -1.795693
 H         1.869578        -0.666946         2.024986
