19
Iteration:  1675
 C        -0.070802         0.167883        -0.348751
 C         1.457908         0.088494         0.016930
 C         2.449161         1.458053         0.040792
 C         3.421621         0.349131         0.519640
 O         4.548869         0.985429         1.341003
 C         3.717528        -0.640897        -0.731540
 C         2.294575        -1.140140        -0.355112
 O         1.529323        -2.221508        -0.926897
 C         2.263181        -0.601222         1.043824
 H        -0.641354         1.033009         0.297826
 H        -0.264254         0.554017        -1.387654
 H        -0.514322        -0.837765        -0.195897
 H         2.721984         2.069313        -0.850583
 H         2.269845         1.870461         1.035600
 H         4.245300         0.945690         2.322286
 H         3.925043        -0.272219        -1.785159
 H         4.390710        -1.416947        -0.262728
 H         0.607359        -1.968416        -0.914329
 H         1.930474        -0.947561         1.998730
