19
Iteration:  1904
 C        -0.094399         0.257073        -0.232626
 C         1.409269         0.134291        -0.095913
 C         2.321952         1.374503        -0.111916
 C         3.482092         0.422524         0.515803
 O         4.510780         0.753665         1.418100
 C         3.681775        -0.595403        -0.700818
 C         2.282604        -1.033115        -0.404956
 O         1.673031        -2.251538        -0.869995
 C         2.312439        -0.537239         1.038731
 H        -0.342696         1.350293        -0.016832
 H        -0.371991         0.107035        -1.249340
 H        -0.486790        -0.454873         0.428932
 H         2.590213         2.083983        -1.035437
 H         1.968115         2.021949         0.758821
 H         4.048977         1.108483         2.223144
 H         3.985758        -0.179911        -1.714642
 H         4.303683        -1.516631        -0.533093
 H         0.792438        -2.332447        -0.527660
 H         2.144302        -1.070079         1.912020
