19
Iteration:  1764charge 0 multiplicity 1
 C        -0.030481         0.321939        -0.071246
 C         1.449840         0.204315        -0.120449
 C         2.377555         1.472100        -0.073365
 C         3.366847         0.429978         0.495883
 O         4.376270         0.679641         1.429461
 C         3.725910        -0.630885        -0.696832
 C         2.310480        -1.136844        -0.524742
 O         1.667315        -2.283296        -0.766010
 C         2.257075        -0.549594         0.923163
 H        -0.482140         1.136773         0.645740
 H        -0.580925         0.711623        -0.940138
 H        -0.506945        -0.678372         0.302238
 H         2.662386         1.968194        -0.990182
 H         1.987521         2.202004         0.718041
 H         4.509373         1.694201         1.388354
 H         4.152238        -0.382161        -1.683937
 H         4.610001        -1.257852        -0.437319
 H         1.958649        -2.681386        -1.590425
 H         1.814923        -0.969183         1.906984
