19
Iteration:  1646
 C        -0.027450         0.269267        -0.223893
 C         1.406986         0.161183        -0.041110
 C         2.386727         1.384208        -0.086053
 C         3.380647         0.310555         0.557994
 O         4.498962         0.757434         1.350590
 C         3.663155        -0.566846        -0.666695
 C         2.257723        -0.991783        -0.439067
 O         1.741647        -2.259807        -0.833411
 C         2.244450        -0.559293         0.993825
 H        -0.504834         0.878722         0.473177
 H        -0.401615         0.632021        -1.169375
 H        -0.495519        -0.718464        -0.008426
 H         2.576917         1.893339        -1.035358
 H         2.117302         2.180310         0.725692
 H         4.281378         1.523660         1.854351
 H         4.096951        -0.176424        -1.587379
 H         4.323330        -1.415100        -0.463721
 H         0.794932        -2.246901        -1.003852
 H         1.936497        -1.179101         1.918621
