19
Iteration:  2530
 C        -0.106576         0.262893        -0.234900
 C         1.352264         0.215847        -0.026249
 C         2.256354         1.439767         0.055071
 C         3.429686         0.429877         0.540375
 O         4.586062         0.801763         1.283644
 C         3.677454        -0.501391        -0.710453
 C         2.286681        -1.102595        -0.413935
 O         1.741330        -2.391266        -0.794337
 C         2.190731        -0.584434         0.968460
 H        -0.394025         1.252355         0.221406
 H        -0.495684         0.478817        -1.310823
 H        -0.655882        -0.528189         0.261773
 H         2.379408         2.124264        -0.748861
 H         1.834973         2.097434         0.785844
 H         4.732216         0.219206         2.014933
 H         3.986317         0.020873        -1.701756
 H         4.517234        -1.131643        -0.390182
 H         2.143759        -2.400121        -1.702950
 H         1.988281        -1.197153         1.723352
