19
Iteration:  3441charge 0 multiplicity 1
 C        -0.088644         0.409916        -0.151561
 C         1.392924         0.152285        -0.009380
 C         2.387001         1.395162        -0.138239
 C         3.375288         0.306799         0.562508
 O         4.473897         0.861390         1.313325
 C         3.714016        -0.642434        -0.672512
 C         2.235593        -1.082165        -0.385784
 O         1.790585        -2.364530        -0.879825
 C         2.249984        -0.587201         0.988634
 H        -0.485536         0.824180         0.710748
 H        -0.313303         0.928259        -1.099134
 H        -0.639296        -0.556163        -0.251573
 H         2.821498         1.922216        -1.093777
 H         2.130838         2.149889         0.743771
 H         4.045003         1.674031         1.796005
 H         4.057662        -0.115223        -1.615540
 H         4.388198        -1.464388        -0.376461
 H         0.817739        -2.296232        -0.936243
 H         2.072657        -1.027797         1.978508
