19
Iteration:  3205charge 0 multiplicity 1
 C        -0.047577         0.343700        -0.315160
 C         1.351185         0.193468         0.016590
 C         2.325734         1.331394        -0.014129
 C         3.411688         0.373574         0.541541
 O         4.551648         0.886945         1.205564
 C         3.725097        -0.635789        -0.574017
 C         2.274493        -1.063104        -0.378630
 O         1.611368        -2.302046        -0.799825
 C         2.293302        -0.662794         1.057552
 H        -0.666061         0.641994         0.580346
 H        -0.148636         0.985878        -1.156377
 H        -0.338279        -0.610318        -0.653562
 H         2.720743         1.731710        -1.010522
 H         1.979723         2.106684         0.622858
 H         4.220093         1.642509         1.677558
 H         3.932248        -0.177520        -1.551794
 H         4.422480        -1.445598        -0.224459
 H         1.527956        -2.205746        -1.780443
 H         2.048340        -1.171384         2.124155
