19
Iteration:    15
 C        -0.017187         0.119397        -0.050819
 C         1.387348         0.218786         0.053176
 C         2.412707         1.319568         0.111561
 C         3.407057         0.381669         0.472909
 O         4.488978         0.818438         1.213302
 C         3.680397        -0.459424        -0.743385
 C         2.200878        -1.005824        -0.514558
 O         1.537956        -2.224806        -0.858339
 C         2.342000        -0.640401         0.949503
 H        -0.592621         0.492945         0.788524
 H        -0.456331         0.577824        -0.882598
 H        -0.178493        -0.956647        -0.088872
 H         2.610659         2.012870        -0.769555
 H         2.239400         2.016243         0.840894
 H         4.213178         1.726120         1.520884
 H         4.115100         0.013518        -1.581284
 H         4.184320        -1.213936        -0.220133
 H         2.343275        -2.668342        -1.294248
 H         2.435516        -1.276371         1.779787
