19
Iteration:  3844charge 0 multiplicity 1
 C        -0.025934         0.198005        -0.206071
 C         1.422499         0.097495        -0.020550
 C         2.331008         1.319394        -0.190593
 C         3.494050         0.397530         0.576393
 O         4.635800         0.930548         1.237048
 C         3.629948        -0.702769        -0.450539
 C         2.225655        -1.168230        -0.301741
 O         1.701363        -2.193766        -1.074955
 C         2.116012        -0.453107         1.163986
 H        -0.507382         0.777408         0.612380
 H        -0.146869         0.766706        -1.128288
 H        -0.622592        -0.780648        -0.134172
 H         2.551872         1.589042        -1.177695
 H         2.107039         2.247620         0.407756
 H         4.330528         1.503391         1.955458
 H         3.955729        -0.348671        -1.511914
 H         4.256859        -1.552338        -0.031901
 H         0.819169        -1.997121        -1.424541
 H         1.866366        -0.828609         2.102387
