19
Iteration:  2054charge 0 multiplicity 1
 C        -0.035376         0.281792        -0.327161
 C         1.400896         0.251803        -0.096939
 C         2.337694         1.458105        -0.063145
 C         3.378428         0.454917         0.526220
 O         4.544117         0.633498         1.317059
 C         3.612838        -0.566875        -0.625394
 C         2.275813        -1.037879        -0.409689
 O         1.671881        -2.314503        -0.684238
 C         2.249532        -0.582028         0.997014
 H        -0.458308         0.389995         0.704790
 H        -0.320532         0.985322        -1.211900
 H        -0.321475        -0.825090        -0.689046
 H         2.501940         1.987051        -1.004269
 H         2.175983         2.205803         0.786917
 H         4.367404         1.451618         1.806927
 H         3.937495        -0.158772        -1.559823
 H         4.386359        -1.218264        -0.138915
 H         2.101596        -2.584327        -1.500220
 H         1.846749        -1.035114         1.794908
