19
Iteration:  4102charge 0 multiplicity 1
 C        -0.108866         0.171295        -0.280367
 C         1.359970         0.181394        -0.118223
 C         2.370894         1.353830        -0.108900
 C         3.447120         0.350800         0.535331
 O         4.523188         0.814073         1.385202
 C         3.659307        -0.658251        -0.572394
 C         2.249364        -1.031994        -0.330827
 O         1.749877        -2.185027        -0.941502
 C         2.251317        -0.384366         1.087805
 H        -0.619216         1.103413         0.122608
 H        -0.581031         0.287930        -1.287496
 H        -0.647515        -0.601228         0.174697
 H         2.595157         1.896886        -1.038637
 H         1.862321         2.069466         0.488913
 H         5.315333         0.291020         1.321167
 H         3.819579        -0.240874        -1.626714
 H         4.336944        -1.572818        -0.352425
 H         1.249345        -2.767787        -0.365762
 H         1.869860        -0.887088         2.034520
