19
Iteration:  2634charge 0 multiplicity 1
 C        -0.020364         0.231789        -0.108872
 C         1.373072         0.170459         0.017974
 C         2.384634         1.364985        -0.080231
 C         3.484664         0.368880         0.539929
 O         4.468914         0.923013         1.374179
 C         3.704230        -0.672124        -0.605517
 C         2.232569        -1.106161        -0.486255
 O         1.714079        -2.254975        -0.954333
 C         2.177008        -0.577478         1.079207
 H        -0.611332         0.605644         0.736102
 H        -0.223535         0.714933        -1.010251
 H        -0.466421        -0.773973        -0.284724
 H         2.496882         1.558423        -1.086888
 H         2.104952         2.217830         0.547549
 H         4.546139         1.870698         0.934945
 H         4.010851        -0.402662        -1.603382
 H         4.363949        -1.451562        -0.200714
 H         1.379673        -2.031848        -1.862873
 H         1.757809        -0.936194         1.966099
