19
Iteration:  1930
 C        -0.098926         0.303512        -0.096436
 C         1.398532         0.267002        -0.117094
 C         2.384065         1.460569        -0.125259
 C         3.363706         0.366172         0.532780
 O         4.406514         0.645334         1.357989
 C         3.775293        -0.572411        -0.653341
 C         2.311434        -1.083045        -0.481764
 O         1.800899        -2.339552        -0.853293
 C         2.188498        -0.530064         0.952291
 H        -0.291148         1.344868         0.022355
 H        -0.602544        -0.013467        -1.042207
 H        -0.343024        -0.424070         0.785972
 H         2.760280         2.124249        -0.949870
 H         2.180071         1.998129         0.767817
 H         4.256908         1.473652         1.835535
 H         3.971348        -0.125571        -1.619945
 H         4.494558        -1.313835        -0.354461
 H         0.894710        -2.377695        -0.575177
 H         1.807616        -0.705152         2.030722
