19
Iteration:  1195
 C        -0.066438         0.375881        -0.281016
 C         1.326591         0.104833         0.113920
 C         2.307394         1.276450         0.084723
 C         3.476400         0.350061         0.488252
 O         4.401412         0.980052         1.384543
 C         3.711748        -0.480020        -0.779913
 C         2.249343        -1.099436        -0.466235
 O         1.645784        -2.360084        -0.785765
 C         2.441954        -0.742969         1.004944
 H        -0.474998         1.073630         0.451000
 H        -0.005625         0.821801        -1.211773
 H        -0.796685        -0.471238        -0.339489
 H         2.607178         1.841618        -0.944160
 H         2.242166         2.078238         0.947276
 H         4.867933         1.592832         0.748129
 H         3.749378         0.018649        -1.758421
 H         4.429734        -1.288782        -0.617475
 H         1.144843        -2.355432        -1.597465
 H         2.425810        -1.229994         1.900632
