19
Iteration:   451charge 0 multiplicity 1
 C        -0.093841         0.127218        -0.132515
 C         1.377291         0.123359         0.018072
 C         2.356360         1.357341        -0.042455
 C         3.422766         0.398851         0.483604
 O         4.605431         0.820851         1.348461
 C         3.581535        -0.563119        -0.687728
 C         2.233939        -1.089641        -0.322640
 O         1.684920        -2.150062        -1.031832
 C         2.212496        -0.461483         1.086257
 H        -0.682528         0.480351         0.729151
 H        -0.413744         0.775090        -0.958042
 H        -0.342404        -0.911172        -0.367781
 H         2.447555         1.895287        -1.041042
 H         1.925743         1.942122         0.737888
 H         5.425501         0.486662         1.035877
 H         3.624590        -0.033284        -1.734071
 H         4.470561        -1.174895        -0.562665
 H         2.183438        -2.917218        -0.714820
 H         1.938762        -0.551998         2.097347
