19
Iteration:  2944
 C        -0.182482         0.191835        -0.136330
 C         1.374592         0.128774        -0.046779
 C         2.420982         1.302260        -0.067025
 C         3.430620         0.336859         0.539995
 O         4.547705         0.965578         1.241499
 C         3.712389        -0.701192        -0.549817
 C         2.329182        -1.036301        -0.415191
 O         1.686651        -2.148635        -0.939752
 C         2.233164        -0.544155         1.037186
 H        -0.611716         1.097188         0.378904
 H        -0.570883         0.378707        -1.101411
 H        -0.535370        -0.735091         0.227615
 H         2.739157         1.763225        -0.990255
 H         2.012759         2.100340         0.626944
 H         4.160725         0.897491         2.203575
 H         4.115049        -0.597704        -1.501529
 H         4.306270        -1.487234        -0.097141
 H         1.075540        -2.173706        -1.676116
 H         2.059083        -1.016858         1.870746
