19
Iteration:   214
 C        -0.128013         0.225327        -0.020835
 C         1.363498         0.149608        -0.065903
 C         2.300969         1.368684         0.107924
 C         3.421754         0.407324         0.479881
 O         4.571453         0.840161         1.233393
 C         3.740456        -0.609668        -0.643721
 C         2.227243        -1.115308        -0.365619
 O         1.782516        -2.245153        -1.094072
 C         2.213931        -0.602088         1.034909
 H        -0.440596         0.780320         0.916449
 H        -0.588172         0.917058        -0.827850
 H        -0.560855        -0.768215        -0.082934
 H         2.302112         2.265425        -0.576959
 H         2.111335         1.734665         1.154920
 H         4.829877         1.672140         0.826036
 H         3.941056         0.037498        -1.611982
 H         4.634539        -1.334628        -0.457243
 H         0.974881        -2.636030        -0.799158
 H         1.776081        -0.656388         2.016916
