19
Iteration:  2623
 C        -0.062709         0.182872        -0.153920
 C         1.477523         0.171628         0.028295
 C         2.398156         1.330922        -0.069432
 C         3.383045         0.321417         0.602186
 O         4.406914         0.959804         1.319071
 C         3.738850        -0.679688        -0.595696
 C         2.297027        -1.095116        -0.360722
 O         1.640661        -2.202264        -0.990980
 C         2.231324        -0.576995         1.015617
 H        -0.481082         0.711237         0.713862
 H        -0.381924         0.753058        -0.964634
 H        -0.409513        -0.855624        -0.173017
 H         2.789877         1.709190        -0.957051
 H         2.115220         2.211832         0.520189
 H         4.729867         1.715387         0.737544
 H         4.108704        -0.334073        -1.548765
 H         4.420549        -1.435341        -0.184940
 H         1.146672        -1.956601        -1.764502
 H         1.952007        -1.075249         1.901740
