19
Iteration:   238
 C        -0.085988         0.293296         0.023618
 C         1.395085         0.175132         0.050667
 C         2.329535         1.301639         0.026927
 C         3.438154         0.364914         0.538651
 O         4.443310         0.899785         1.348267
 C         3.569486        -0.600200        -0.731379
 C         2.231153        -1.051549        -0.417295
 O         1.787145        -2.261255        -1.107402
 C         2.337596        -0.650216         0.975315
 H        -0.528379         0.860451         0.904184
 H        -0.326983         1.022376        -0.858566
 H        -0.530938        -0.690276        -0.205205
 H         2.580600         1.708086        -1.010204
 H         2.045508         2.169800         0.756242
 H         4.849175         1.540354         0.768714
 H         3.937006        -0.108484        -1.767031
 H         4.350708        -1.359778        -0.375992
 H         1.390025        -2.839317        -0.414920
 H         2.278248        -1.091079         1.865701
