19
Iteration:  4575charge 0 multiplicity 1
 C        -0.097115         0.267393        -0.346618
 C         1.423143         0.156426         0.048025
 C         2.336992         1.338722         0.071298
 C         3.441103         0.322840         0.552736
 O         4.567759         0.949269         1.175336
 C         3.685714        -0.622287        -0.648781
 C         2.278675        -1.081193        -0.374270
 O         1.644661        -2.229741        -0.862734
 C         2.257677        -0.677711         1.157923
 H        -0.743130         0.495624         0.482205
 H        -0.315194         1.026393        -1.073809
 H        -0.612800        -0.620274        -0.851667
 H         2.630754         1.704947        -0.917742
 H         2.035337         2.072273         0.767819
 H         4.158705         1.356946         1.893916
 H         3.941380        -0.004032        -1.608345
 H         4.504232        -1.335788        -0.279291
 H         1.510131        -2.075834        -1.829376
 H         1.897123        -1.158737         2.014275
