19
Iteration:  3500charge 0 multiplicity 1
 C        -0.139147         0.287656        -0.210838
 C         1.344165         0.221821        -0.032264
 C         2.398151         1.384566        -0.069870
 C         3.372298         0.389884         0.522407
 O         4.587704         0.780191         1.218716
 C         3.741874        -0.592765        -0.560667
 C         2.213360        -1.092044        -0.396503
 O         1.794507        -2.318253        -0.863944
 C         2.186985        -0.534961         1.036228
 H        -0.566335         1.096282         0.475585
 H        -0.642990         0.478241        -1.175622
 H        -0.399536        -0.670866         0.152973
 H         2.588732         1.840302        -1.032191
 H         2.082900         2.276147         0.742467
 H         4.260699         1.276201         1.929052
 H         4.278347        -0.294579        -1.501077
 H         4.267896        -1.486422        -0.164824
 H         1.037597        -2.084290        -1.403436
 H         1.888622        -1.170072         1.953091
