19
Iteration:  4594
 C        -0.013427         0.096466        -0.257860
 C         1.366699         0.172539         0.010243
 C         2.385253         1.398782         0.008296
 C         3.448147         0.435876         0.559195
 O         4.616086         0.850548         1.289479
 C         3.684009        -0.588394        -0.581555
 C         2.219420        -1.034567        -0.475971
 O         1.569265        -2.218238        -0.818296
 C         2.228387        -0.578763         0.954621
 H        -0.770821         0.178953         0.570668
 H        -0.222373         0.814321        -1.084517
 H        -0.275161        -0.907786        -0.652324
 H         2.434458         1.834714        -0.968158
 H         1.888004         1.989581         0.898761
 H         4.464606         1.636399         1.829051
 H         4.265127        -0.270738        -1.513185
 H         4.246413        -1.443451        -0.083085
 H         1.269131        -2.116438        -1.748185
 H         2.228622        -1.225986         1.731438
