19
Iteration:  1061
 C        -0.148829         0.326964        -0.071428
 C         1.399141         0.062336        -0.020023
 C         2.334764         1.252405         0.024003
 C         3.437246         0.322038         0.523327
 O         4.471069         1.083952         1.376673
 C         3.693409        -0.618803        -0.728569
 C         2.223784        -1.063584        -0.421327
 O         1.774399        -2.261027        -0.987162
 C         2.270000        -0.635399         1.018631
 H        -0.345774         0.922950         0.822292
 H        -0.470291         0.778295        -0.992176
 H        -0.781204        -0.497713         0.091286
 H         2.415981         1.721383        -0.915973
 H         2.061862         2.028108         0.782390
 H         5.318628         0.654909         1.250714
 H         4.006634        -0.196468        -1.679378
 H         4.383169        -1.484321        -0.580824
 H         1.104922        -2.083353        -1.668445
 H         2.178355        -1.329621         1.884298
