19
Iteration:  2875charge 0 multiplicity 1
 C        -0.137525         0.209556        -0.284371
 C         1.333080         0.174935         0.010346
 C         2.350106         1.404785         0.029955
 C         3.423988         0.357676         0.493645
 O         4.538327         0.786303         1.360044
 C         3.712110        -0.583085        -0.726520
 C         2.312780        -1.030731        -0.451876
 O         1.674129        -2.254002        -0.724932
 C         2.268126        -0.572089         0.967002
 H        -0.886510         0.692325         0.307229
 H        -0.381027         0.547309        -1.249627
 H        -0.392556        -0.856406        -0.313464
 H         2.439707         1.999651        -0.836701
 H         2.202251         2.124258         0.916586
 H         4.934005         1.694906         1.291476
 H         4.097195        -0.145406        -1.616098
 H         4.422149        -1.310835        -0.375153
 H         1.336459        -2.331835        -1.651759
 H         1.991262        -1.041243         2.036334
