19
Iteration:   243charge 0 multiplicity 1
 C        -0.057658         0.303338         0.018930
 C         1.376871         0.188348         0.076153
 C         2.340990         1.277106        -0.016678
 C         3.396885         0.351130         0.525246
 O         4.416943         0.876239         1.353825
 C         3.629748        -0.546129        -0.719639
 C         2.176381        -1.046928        -0.448647
 O         1.780954        -2.237505        -1.071281
 C         2.393249        -0.674142         0.961499
 H        -0.553023         0.824845         0.812532
 H        -0.304271         0.959901        -0.768618
 H        -0.458088        -0.699375        -0.177947
 H         2.453422         1.673757        -1.018158
 H         2.139510         2.117394         0.611509
 H         4.890501         1.548617         0.773689
 H         3.892990        -0.066331        -1.591264
 H         4.273419        -1.335446        -0.427090
 H         1.451424        -2.880773        -0.410671
 H         2.282039        -1.168511         2.027177
