19
Iteration:  1753
 C        -0.046589         0.273871        -0.093835
 C         1.429016         0.180072        -0.167227
 C         2.376013         1.417342        -0.013540
 C         3.406969         0.361128         0.497403
 O         4.412049         0.713788         1.385656
 C         3.720323        -0.625987        -0.634922
 C         2.241751        -1.025451        -0.453044
 O         1.710420        -2.296298        -0.808350
 C         2.200112        -0.494260         0.918180
 H        -0.092638         1.140046         0.631445
 H        -0.412028         0.445330        -1.112593
 H        -0.605172        -0.620867         0.350725
 H         2.678918         2.000274        -0.887114
 H         2.001209         2.140107         0.777004
 H         4.842201         1.497991         1.070040
 H         3.895599        -0.124466        -1.592893
 H         4.287304        -1.491798        -0.247075
 H         1.988662        -2.485763        -1.704689
 H         1.833583        -0.803203         1.964794
