19
Iteration:  2277charge 0 multiplicity 1
 C        -0.050034         0.227405        -0.166808
 C         1.417006         0.117299        -0.013756
 C         2.426269         1.320850        -0.188911
 C         3.396027         0.399373         0.532151
 O         4.428394         0.960412         1.271570
 C         3.698619        -0.671620        -0.556769
 C         2.252725        -1.098687        -0.367727
 O         1.734241        -2.177333        -1.003885
 C         2.255607        -0.559796         1.108487
 H        -0.499228         0.765512         0.669883
 H        -0.351308         0.897803        -0.974434
 H        -0.377990        -0.762020        -0.235580
 H         2.495095         1.871291        -1.128484
 H         2.336079         2.089080         0.690451
 H         4.345814         0.566127         2.185692
 H         4.038904        -0.464324        -1.592907
 H         4.242099        -1.495204        -0.200337
 H         0.850622        -2.394804        -0.713645
 H         1.882239        -0.985750         1.964538
