19
Iteration:   619
 C        -0.071995         0.204318        -0.108235
 C         1.422241         0.085892         0.063243
 C         2.392061         1.215657         0.010930
 C         3.471309         0.354182         0.600856
 O         4.398949         1.089889         1.250550
 C         3.680927        -0.612037        -0.720678
 C         2.277221        -1.116034        -0.403451
 O         1.643499        -2.084155        -1.063235
 C         2.259156        -0.689868         1.110316
 H        -0.407781         0.703862         0.764119
 H        -0.115633         0.841656        -0.965720
 H        -0.761434        -0.559698        -0.405575
 H         2.693781         1.780420        -0.869131
 H         2.225423         2.003524         0.729181
 H         5.194181         0.591901         1.251399
 H         3.632188         0.029059        -1.609399
 H         4.440809        -1.303446        -0.972977
 H         1.582418        -2.869635        -0.512277
 H         1.972646        -1.176205         2.072840
