19
Iteration:  1736
 C        -0.152721         0.286900        -0.182229
 C         1.392649         0.245838        -0.107664
 C         2.425272         1.341515        -0.042312
 C         3.422671         0.363595         0.544138
 O         4.531495         0.813016         1.376125
 C         3.649498        -0.620075        -0.596408
 C         2.198175        -1.099673        -0.388958
 O         1.765851        -2.275884        -0.898594
 C         2.170919        -0.522059         1.056200
 H        -0.691532         1.002129         0.382070
 H        -0.560213         0.288730        -1.218268
 H        -0.396426        -0.647193         0.279977
 H         2.648438         2.033038        -0.886814
 H         2.133144         2.086962         0.730553
 H         5.257253         0.980551         0.734202
 H         4.029965        -0.317906        -1.601907
 H         4.356317        -1.424251        -0.365737
 H         1.687744        -2.144435        -1.842549
 H         1.812087        -0.978592         1.884136
