19
Iteration:  3020charge 0 multiplicity 1
 C        -0.121407         0.291858        -0.253860
 C         1.313569         0.217525        -0.028732
 C         2.333512         1.397219        -0.009903
 C         3.387102         0.419254         0.509171
 O         4.599179         0.688514         1.258564
 C         3.712190        -0.581435        -0.672806
 C         2.220346        -1.032747        -0.402941
 O         1.794629        -2.300833        -0.706864
 C         2.181004        -0.516988         0.958572
 H        -0.654056         0.674158         0.690942
 H        -0.400436         0.759800        -1.171211
 H        -0.502935        -0.704873        -0.349348
 H         2.537394         1.846592        -0.957774
 H         2.031522         2.225556         0.777228
 H         4.307622         1.209967         1.974716
 H         3.940710        -0.127420        -1.635745
 H         4.434840        -1.351070        -0.296180
 H         1.947643        -2.476831        -1.657469
 H         2.058335        -1.171626         1.726996
