19
Iteration:  2333
 C        -0.047274         0.128855        -0.197028
 C         1.371540         0.202335        -0.146392
 C         2.404807         1.423889        -0.013414
 C         3.364861         0.374447         0.592150
 O         4.543272         0.794558         1.276695
 C         3.703280        -0.595861        -0.613636
 C         2.278419        -1.066284        -0.380212
 O         1.652336        -2.174129        -0.831822
 C         2.198081        -0.592548         1.017272
 H        -0.580031         0.990317         0.331482
 H        -0.355465        -0.116995        -1.228295
 H        -0.409933        -0.722061         0.340539
 H         2.624908         1.791651        -1.037848
 H         2.095831         2.295350         0.746817
 H         4.599114         1.792758         1.487154
 H         3.977165        -0.188075        -1.599323
 H         4.318578        -1.381209        -0.284002
 H         1.777503        -2.263727        -1.813458
 H         1.851056        -1.196850         1.957292
