19
Iteration:  2987
 C        -0.057101         0.244212        -0.141354
 C         1.443913         0.223101        -0.103274
 C         2.428964         1.418690        -0.064316
 C         3.391018         0.475232         0.498387
 O         4.428204         0.732186         1.383182
 C         3.667313        -0.524383        -0.792530
 C         2.239028        -1.136514        -0.394593
 O         1.702874        -2.363537        -0.714740
 C         2.261544        -0.529721         0.927742
 H        -0.442275         1.003021         0.604740
 H        -0.483787         0.655834        -1.003686
 H        -0.339639        -0.750215         0.039498
 H         2.770420         1.780651        -1.001162
 H         2.021652         2.304344         0.580611
 H         4.040490         0.709336         2.316894
 H         3.804795        -0.111917        -1.768725
 H         4.625550        -1.041525        -0.685991
 H         1.704552        -2.326165        -1.674218
 H         2.018158        -0.750197         1.860152
