19
Iteration:  1635charge 0 multiplicity 1
 C        -0.141485         0.303190        -0.141882
 C         1.377649         0.147737        -0.064005
 C         2.373227         1.371285        -0.093617
 C         3.403766         0.452746         0.505506
 O         4.480918         0.636663         1.316270
 C         3.722508        -0.613523        -0.671453
 C         2.262536        -1.049857        -0.434025
 O         1.873147        -2.212744        -0.831714
 C         2.144514        -0.551395         1.050491
 H        -0.383153         0.991992         0.589778
 H        -0.272081         0.629481        -1.162287
 H        -0.737605        -0.627097        -0.056667
 H         2.793708         1.791568        -1.009079
 H         1.985684         2.239767         0.602034
 H         4.375730         1.540174         1.579196
 H         4.013823        -0.113261        -1.598710
 H         4.368517        -1.326594        -0.164451
 H         0.978395        -2.080421        -1.244663
 H         1.821460        -1.133825         2.018967
