19
Iteration:  4385
 C        -0.077355         0.388220        -0.273230
 C         1.389164         0.110864        -0.112589
 C         2.294665         1.348623        -0.012232
 C         3.386468         0.373148         0.545379
 O         4.478868         0.786294         1.342437
 C         3.642636        -0.610283        -0.685101
 C         2.319361        -1.094507        -0.346948
 O         1.762820        -2.285483        -0.739321
 C         2.277901        -0.528986         1.016636
 H        -0.633628         0.720283         0.628478
 H        -0.301723         1.013435        -1.150155
 H        -0.393148        -0.573149        -0.491262
 H         2.509802         1.910122        -0.891844
 H         1.761128         1.957204         0.745497
 H         4.993670         1.460437         0.826409
 H         3.848655        -0.242844        -1.744304
 H         4.398304        -1.278006        -0.314080
 H         1.355456        -2.269090        -1.615615
 H         2.115805        -1.136029         1.906658
