19
Iteration:  3253
 C        -0.135504         0.111215        -0.227504
 C         1.363384         0.196795        -0.092205
 C         2.393735         1.415383        -0.160709
 C         3.470516         0.401546         0.570219
 O         4.591585         0.806221         1.253995
 C         3.683308        -0.722443        -0.532434
 C         2.234526        -1.082082        -0.328929
 O         1.688375        -2.197928        -0.938735
 C         2.252437        -0.479585         1.109871
 H        -0.512732         0.460723         0.715586
 H        -0.475355         0.720198        -1.071390
 H        -0.621462        -0.908642        -0.435212
 H         2.387175         1.867242        -1.074567
 H         2.072770         2.175811         0.642849
 H         4.410517         1.566664         1.853558
 H         4.244974        -0.166711        -1.340561
 H         4.329826        -1.437853        -0.012062
 H         0.864354        -1.820654        -1.242594
 H         1.994499        -0.857775         1.973990
