19
Iteration:  4432charge 0 multiplicity 1
 C        -0.058431         0.187133        -0.281301
 C         1.413534         0.146377        -0.040019
 C         2.391447         1.361820         0.017684
 C         3.415200         0.369401         0.586005
 O         4.489921         0.993610         1.155177
 C         3.655956        -0.685311        -0.593352
 C         2.259758        -0.981803        -0.318383
 O         1.740324        -2.218344        -0.897260
 C         2.167645        -0.639995         1.113195
 H        -0.390860         0.945259         0.464565
 H        -0.311488         0.592995        -1.258063
 H        -0.694214        -0.701454        -0.108068
 H         2.785760         1.829307        -0.950179
 H         2.133455         2.087211         0.768018
 H         4.856437         0.403470         1.757078
 H         4.015840        -0.267887        -1.528603
 H         4.241727        -1.543680        -0.244144
 H         1.125402        -2.040177        -1.650297
 H         1.927723        -1.364969         1.935495
