19
Iteration:   652charge 0 multiplicity 1
 C        -0.127026         0.157810        -0.218998
 C         1.379269         0.080948         0.124042
 C         2.275069         1.397634         0.147480
 C         3.431393         0.506782         0.490085
 O         4.534025         0.937414         1.159562
 C         3.680346        -0.630857        -0.552067
 C         2.262127        -1.033870        -0.387272
 O         1.661470        -2.143020        -1.080382
 C         2.297434        -0.676717         1.054402
 H        -0.658567         0.770562         0.463116
 H        -0.151108         0.847615        -1.026093
 H        -0.663694        -0.773273        -0.359622
 H         2.492293         2.062121        -0.701399
 H         2.005328         1.910553         1.081518
 H         5.180042         0.277762         0.892745
 H         4.055414        -0.377680        -1.557235
 H         4.291668        -1.385605        -0.163034
 H         2.001847        -2.978192        -0.642074
 H         2.242213        -1.242977         1.963500
