19
Iteration:  3769
 C        -0.031653         0.354020        -0.312531
 C         1.404735         0.188193        -0.064851
 C         2.389329         1.379342        -0.058656
 C         3.412973         0.423491         0.454762
 O         4.492444         0.763422         1.274777
 C         3.693709        -0.568848        -0.616933
 C         2.259890        -1.118220        -0.357783
 O         1.738866        -2.335872        -0.723969
 C         2.204470        -0.602812         1.013562
 H        -0.368774         1.146140         0.285976
 H        -0.344693         0.455360        -1.331839
 H        -0.543080        -0.466361         0.296527
 H         2.645441         2.001712        -0.952495
 H         2.105653         2.034149         0.836742
 H         3.936861         1.331262         1.912357
 H         3.690764         0.031994        -1.547166
 H         4.529782        -1.194217        -0.318318
 H         1.076183        -2.261232        -1.450796
 H         1.892016        -1.164877         1.884992
