19
Iteration:  3443charge 0 multiplicity 1
 C        -0.078159         0.396614        -0.145249
 C         1.402429         0.156811        -0.014478
 C         2.405352         1.375963        -0.132186
 C         3.370593         0.326082         0.544849
 O         4.459647         0.849385         1.306693
 C         3.714927        -0.624645        -0.666329
 C         2.216384        -1.082964        -0.387323
 O         1.813540        -2.362266        -0.872220
 C         2.242585        -0.602367         0.996215
 H        -0.529858         0.914839         0.723679
 H        -0.247238         1.013066        -1.078776
 H        -0.672049        -0.474061        -0.218848
 H         2.785971         1.870332        -1.069244
 H         2.120453         2.165298         0.776516
 H         4.011024         1.654877         1.759968
 H         3.970999        -0.170953        -1.670358
 H         4.409921        -1.452100        -0.380099
 H         0.821547        -2.275956        -0.937034
 H         1.991755        -0.970123         1.913198
