19
Iteration:   393
 C        -0.098237         0.226048        -0.018130
 C         1.396205         0.170546        -0.137783
 C         2.379637         1.359675         0.025253
 C         3.476608         0.321248         0.522458
 O         4.443539         0.940002         1.431625
 C         3.756287        -0.561960        -0.821868
 C         2.220781        -1.040153        -0.463569
 O         1.621689        -2.261003        -0.933210
 C         2.228967        -0.606651         0.964950
 H        -0.450931         0.659216         0.920194
 H        -0.503487         0.578434        -1.002803
 H        -0.545531        -0.823650         0.011569
 H         2.628865         2.122227        -0.748882
 H         2.025778         1.963165         0.950813
 H         5.265787         0.851164         0.861081
 H         3.998623         0.024422        -1.775549
 H         4.505057        -1.358594        -0.726185
 H         1.931612        -2.817775        -0.192696
 H         2.081369        -1.054694         1.986334
