19
Iteration:  1719
 C        -0.121368         0.167852        -0.248390
 C         1.341659         0.203600         0.068532
 C         2.410162         1.429713        -0.039531
 C         3.441306         0.396030         0.626399
 O         4.544261         0.864851         1.276147
 C         3.652001        -0.660442        -0.562201
 C         2.272854        -1.036792        -0.364774
 O         1.726356        -2.258451        -0.973485
 C         2.164069        -0.583464         1.055426
 H        -0.605166         1.211993         0.062178
 H        -0.334718         0.505243        -1.288293
 H        -0.841262        -0.657094        -0.000864
 H         2.687730         1.671098        -1.100833
 H         2.188593         2.312597         0.579590
 H         5.338454         0.300462         1.016233
 H         4.077347        -0.248138        -1.543232
 H         4.395964        -1.446721        -0.283959
 H         1.191657        -1.952849        -1.707276
 H         1.956361        -0.969218         2.126744
