19
Iteration:  1232charge 0 multiplicity 1
 C        -0.159698         0.049842        -0.095217
 C         1.421729         0.181063        -0.109559
 C         2.373538         1.431311        -0.022320
 C         3.428950         0.399591         0.506913
 O         4.521042         0.763105         1.314765
 C         3.752732        -0.594598        -0.629320
 C         2.252977        -1.039749        -0.407421
 O         1.664949        -2.226509        -0.862116
 C         2.220895        -0.497444         0.965966
 H        -0.502030         0.538218         0.840049
 H        -0.771952         0.606697        -0.891268
 H        -0.335271        -1.021881        -0.093004
 H         2.531011         2.066606        -0.910048
 H         2.026795         2.023748         0.814213
 H         4.824452         1.716921         1.182911
 H         4.073659        -0.192616        -1.629974
 H         4.462873        -1.365684        -0.245743
 H         1.544771        -2.045314        -1.797730
 H         1.989616        -0.652400         2.099724
