19
Iteration:  1955charge 0 multiplicity 1
 C        -0.147215         0.308960        -0.115457
 C         1.343393         0.260313        -0.102986
 C         2.434283         1.371840        -0.104665
 C         3.425660         0.395973         0.603439
 O         4.567578         0.770951         1.322763
 C         3.602426        -0.670265        -0.579577
 C         2.204412        -1.036522        -0.412836
 O         1.905107        -2.329733        -1.000362
 C         2.135775        -0.503321         1.004511
 H        -0.297395         1.350940         0.113254
 H        -0.605585         0.108715        -1.150169
 H        -0.431512        -0.507092         0.610344
 H         2.859333         1.683625        -0.989419
 H         2.147401         2.176288         0.608422
 H         4.325357         1.550851         1.764370
 H         3.786690        -0.487910        -1.617548
 H         4.258489        -1.380391        -0.022977
 H         0.994534        -2.626939        -0.840456
 H         1.739930        -1.026843         1.967132
