19
Iteration:  2747charge 0 multiplicity 1
 C        -0.009520         0.117557        -0.263920
 C         1.479890         0.130011         0.032876
 C         2.369659         1.412792        -0.044367
 C         3.385506         0.403461         0.554745
 O         4.467908         0.988257         1.288122
 C         3.704699        -0.641066        -0.625131
 C         2.269541        -1.051746        -0.409004
 O         1.563973        -2.209672        -0.893632
 C         2.291571        -0.629537         1.063004
 H        -0.357391         0.945872         0.357114
 H        -0.243293         0.143485        -1.354322
 H        -0.521549        -0.724609         0.133556
 H         2.637658         1.744000        -1.068018
 H         1.984303         2.027565         0.732946
 H         5.093910         0.216167         1.474797
 H         3.927069        -0.137708        -1.565763
 H         4.286064        -1.369406        -0.121551
 H         1.199128        -1.732429        -1.631011
 H         1.898382        -1.033110         2.152961
