19
Iteration:  4339charge 0 multiplicity 1
 C        -0.135184         0.088299        -0.158460
 C         1.425268         0.307967        -0.118452
 C         2.448300         1.437025        -0.099243
 C         3.439915         0.405120         0.470388
 O         4.514349         0.789702         1.411420
 C         3.695041        -0.658918        -0.623098
 C         2.215638        -1.077155        -0.433293
 O         1.640597        -2.264042        -0.757940
 C         2.261621        -0.484371         0.886758
 H        -0.443125         0.775862         0.622838
 H        -0.528780         0.431249        -1.124397
 H        -0.284161        -0.948791         0.081057
 H         2.641606         1.893258        -1.045124
 H         2.193115         2.211983         0.663263
 H         4.114838         1.277373         2.246859
 H         3.871168        -0.216409        -1.677467
 H         4.423748        -1.496111        -0.361446
 H         1.643108        -2.387661        -1.709479
 H         1.996473        -0.740908         1.874589
