19
Iteration:   926
 C        -0.046383         0.170129         0.036301
 C         1.492355         0.122064         0.053426
 C         2.352626         1.356939         0.045791
 C         3.396209         0.374168         0.559932
 O         4.459617         1.057030         1.227492
 C         3.644929        -0.671167        -0.655866
 C         2.232698        -1.101975        -0.355092
 O         1.664697        -2.135482        -1.228002
 C         2.223395        -0.649503         1.067612
 H        -0.362858         0.831152         0.811142
 H        -0.379420         0.631590        -0.904043
 H        -0.605341        -0.779157         0.222440
 H         2.531210         1.891399        -0.865309
 H         1.979308         2.113849         0.684833
 H         5.042317         0.407581         1.598018
 H         3.984764        -0.376120        -1.687245
 H         4.392659        -1.420574        -0.358531
 H         2.468216        -2.687759        -1.445758
 H         1.716028        -1.123447         2.035589
