19
Iteration:  1845charge 0 multiplicity 1
 C        -0.068619         0.200655        -0.322237
 C         1.375690         0.116162        -0.030227
 C         2.294073         1.312337         0.071942
 C         3.431089         0.413592         0.621832
 O         4.676142         0.894678         1.090309
 C         3.687176        -0.698777        -0.461056
 C         2.214153        -1.077107        -0.326730
 O         1.695790        -2.187736        -1.046774
 C         2.219980        -0.492212         1.111953
 H        -0.664343         0.618635         0.415851
 H        -0.147653         0.713381        -1.329411
 H        -0.626716        -0.719628        -0.580941
 H         2.632141         1.956370        -0.799207
 H         1.979904         2.048075         0.963216
 H         4.734553         0.665175         2.098929
 H         4.085607        -0.395670        -1.433877
 H         4.082660        -1.627203         0.037105
 H         0.713872        -2.071468        -1.111151
 H         1.741815        -0.365968         2.163695
