19
Iteration:  1881charge 0 multiplicity 1
 C        -0.065896         0.191727        -0.312409
 C         1.393022         0.229420         0.103626
 C         2.450195         1.360513         0.023666
 C         3.436304         0.367949         0.544229
 O         4.520112         0.874668         1.214270
 C         3.658706        -0.602829        -0.613399
 C         2.259405        -1.093556        -0.356896
 O         1.661450        -2.216574        -0.960096
 C         2.194121        -0.589386         1.055493
 H        -0.627031         1.136572        -0.059680
 H         0.024180         0.258960        -1.394857
 H        -0.448589        -0.716189         0.020548
 H         2.764684         1.624333        -1.103991
 H         2.289298         2.343460         0.636287
 H         4.383997         0.804378         2.203805
 H         4.025919        -0.136293        -1.577706
 H         4.455196        -1.408551        -0.372939
 H         0.712693        -2.355908        -0.715993
 H         1.919975        -1.016455         2.080649
