19
Iteration:  1831charge 0 multiplicity 1
 C        -0.132443         0.256048        -0.280548
 C         1.428204         0.175909        -0.013541
 C         2.379678         1.415451        -0.012430
 C         3.406447         0.389224         0.542949
 O         4.606378         0.873548         1.152937
 C         3.712009        -0.688868        -0.468992
 C         2.257706        -1.127930        -0.388052
 O         1.686276        -2.267144        -1.014050
 C         2.176350        -0.521998         1.157770
 H        -0.661990         0.573282         0.631983
 H        -0.289489         1.007693        -1.056739
 H        -0.478585        -0.821363        -0.523303
 H         2.477723         2.056383        -0.823081
 H         1.989674         2.046830         0.781994
 H         4.631019         0.715215         2.063466
 H         4.169220        -0.399230        -1.405167
 H         4.467799        -1.231574        -0.013545
 H         0.744649        -2.098648        -1.266123
 H         1.853562        -0.898906         2.050269
