19
Iteration:   590
 C        -0.051554         0.152918         0.003338
 C         1.407421         0.217320        -0.011612
 C         2.326269         1.431829        -0.026393
 C         3.425888         0.429061         0.513211
 O         4.452322         0.911496         1.336606
 C         3.754532        -0.612335        -0.690144
 C         2.243406        -1.057506        -0.532003
 O         1.588867        -2.247026        -0.957203
 C         2.292192        -0.576784         0.930082
 H        -0.502987         0.654338         0.890379
 H        -0.436180         0.654789        -0.950325
 H        -0.400028        -0.954301        -0.100848
 H         2.484386         1.999746        -0.954528
 H         2.045705         2.080540         0.929156
 H         4.772585         0.164593         1.851986
 H         4.076846        -0.105340        -1.618297
 H         4.502072        -1.513933        -0.446890
 H         2.148749        -3.014716        -0.637106
 H         2.175904        -0.970486         1.837126
