19
Iteration:  1673charge 0 multiplicity 1
 C        -0.065418         0.177518        -0.337870
 C         1.436423         0.091992         0.012440
 C         2.463206         1.451854         0.051487
 C         3.439751         0.364561         0.501728
 O         4.548775         0.981879         1.360065
 C         3.711753        -0.633893        -0.724987
 C         2.285642        -1.134198        -0.363768
 O         1.523561        -2.246342        -0.925105
 C         2.260865        -0.604481         1.038932
 H        -0.708035         0.983888         0.277984
 H        -0.285454         0.552192        -1.372718
 H        -0.486837        -0.806784        -0.187823
 H         2.764679         2.074310        -0.814983
 H         2.281778         1.920349         0.940080
 H         4.210459         1.000664         2.246914
 H         3.976170        -0.272580        -1.738524
 H         4.470717        -1.380272        -0.343964
 H         0.597271        -2.031224        -0.904930
 H         1.954306        -0.942316         1.918218
