19
Iteration:  2239charge 0 multiplicity 1
 C        -0.068729         0.356434        -0.195634
 C         1.449079         0.200139        -0.130636
 C         2.408096         1.390812        -0.037122
 C         3.397525         0.431019         0.498137
 O         4.411142         0.927546         1.420724
 C         3.683203        -0.627471        -0.687919
 C         2.224764        -1.090092        -0.434404
 O         1.695047        -2.368766        -0.830326
 C         2.230751        -0.617786         0.965283
 H        -0.608079         0.859006         0.644326
 H        -0.207907         0.904949        -1.172735
 H        -0.656334        -0.571001        -0.549110
 H         2.596580         1.931713        -1.033659
 H         2.105331         2.038341         0.821399
 H         5.146532         0.440214         1.144134
 H         4.088737        -0.028643        -1.512976
 H         4.482540        -1.353340        -0.215911
 H         1.887955        -3.013779        -0.118924
 H         1.875326        -1.232274         1.932659
