19
Iteration:  4929charge 0 multiplicity 1
 C        -0.059219         0.196292        -0.285516
 C         1.411151         0.141913         0.043540
 C         2.332107         1.360566         0.060541
 C         3.401051         0.362544         0.546653
 O         4.453520         0.819661         1.364463
 C         3.685634        -0.521862        -0.755144
 C         2.318933        -1.074862        -0.395507
 O         1.708274        -2.208482        -0.854131
 C         2.218003        -0.630205         1.062908
 H        -0.638402         0.916213         0.348286
 H        -0.162234         0.479215        -1.370820
 H        -0.466146        -0.796427        -0.177335
 H         2.540615         1.880762        -0.926725
 H         2.091533         2.101594         0.827838
 H         4.852489         1.543053         0.900028
 H         3.908705        -0.157265        -1.706935
 H         4.407675        -1.245659        -0.515848
 H         1.672596        -2.114905        -1.835139
 H         1.824142        -0.976617         2.094700
