19
Iteration:   196charge 0 multiplicity 1
 C        -0.078324         0.135576        -0.050706
 C         1.401910         0.136303        -0.030450
 C         2.315055         1.408094         0.136854
 C         3.360001         0.408993         0.589839
 O         4.573958         0.758925         1.173420
 C         3.618641        -0.554869        -0.646917
 C         2.283640        -1.040090        -0.502367
 O         1.785328        -2.202603        -1.002116
 C         2.265287        -0.566620         1.027989
 H        -0.551712         0.731207         0.733957
 H        -0.531381         0.684951        -0.898487
 H        -0.436874        -0.910239         0.005801
 H         2.563920         1.946132        -0.795137
 H         1.799207         2.162004         0.830851
 H         4.711562         1.683010         1.002604
 H         3.972176        -0.307361        -1.672104
 H         4.178311        -1.341331        -0.184011
 H         0.859563        -2.134256        -0.804389
 H         2.016843        -1.121596         1.860006
