19
Iteration:  3798charge 0 multiplicity 1
 C        -0.130656         0.199093        -0.209506
 C         1.389317         0.173980        -0.109359
 C         2.404800         1.366390        -0.123426
 C         3.442411         0.493302         0.537770
 O         4.562883         0.791948         1.384712
 C         3.776583        -0.722563        -0.643758
 C         2.257779        -1.044438        -0.484867
 O         1.682609        -2.274658        -0.814093
 C         2.197719        -0.461377         1.013794
 H        -0.628380         0.799385         0.669515
 H        -0.597866         0.609795        -1.158895
 H        -0.487703        -0.800220         0.121072
 H         2.722408         1.872627        -1.029957
 H         2.024542         2.146215         0.584379
 H         4.149755         1.581430         1.912887
 H         4.180103        -0.444369        -1.677371
 H         4.523299        -1.482223        -0.164897
 H         0.728866        -2.100146        -0.955374
 H         1.726395        -1.087957         1.916744
