19
Iteration:  2099charge 0 multiplicity 1
 C        -0.150778         0.388889        -0.182010
 C         1.363173         0.208152        -0.066386
 C         2.465070         1.349336        -0.122650
 C         3.416785         0.376442         0.518260
 O         4.504586         0.812807         1.284762
 C         3.674627        -0.633750        -0.579042
 C         2.257718        -1.091601        -0.309960
 O         1.786239        -2.264519        -0.962621
 C         2.146498        -0.567440         1.034544
 H        -0.502809         1.214108         0.563392
 H        -0.455571         0.597489        -1.305503
 H        -0.595133        -0.649170         0.085459
 H         2.748439         1.671302        -1.112173
 H         1.867870         2.113814         0.482510
 H         4.267876         1.031522         2.219323
 H         3.846540        -0.296647        -1.589042
 H         4.254876        -1.502580        -0.227043
 H         2.310643        -3.020157        -0.713807
 H         1.843567        -0.862733         2.040072
