19
Iteration:  4139charge 0 multiplicity 1
 C        -0.028117         0.293129        -0.313105
 C         1.465357         0.233538         0.031670
 C         2.400664         1.360533        -0.018983
 C         3.454821         0.327432         0.645061
 O         4.396885         1.058130         1.183112
 C         3.778292        -0.720007        -0.520232
 C         2.321501        -1.177454        -0.364989
 O         1.502032        -2.186488        -0.975994
 C         2.189248        -0.610981         1.030972
 H        -0.406311         1.021355         0.348487
 H        -0.092411         0.445154        -1.358400
 H        -0.462485        -0.732300        -0.088170
 H         2.515009         1.760248        -1.032999
 H         2.288158         2.091992         0.784835
 H         4.829967         0.698636         1.909166
 H         4.021602        -0.350215        -1.528909
 H         4.492627        -1.543811        -0.233782
 H         1.814011        -3.065070        -0.657713
 H         1.937268        -1.302861         1.771389
