19
Iteration:   672
 C        -0.128608         0.094596        -0.207613
 C         1.378872         0.233560        -0.043021
 C         2.263581         1.346738         0.193578
 C         3.438752         0.321411         0.586996
 O         4.581397         0.860272         1.151915
 C         3.691093        -0.546950        -0.701565
 C         2.273122        -1.001504        -0.422764
 O         1.693306        -2.135719        -0.937153
 C         2.180484        -0.542874         1.053933
 H        -0.731545         0.553768         0.617606
 H        -0.595553         0.477773        -1.131754
 H        -0.276148        -0.966865        -0.074720
 H         2.403065         2.056003        -0.707198
 H         2.090930         1.915402         1.047414
 H         5.252107         0.222000         1.310689
 H         4.058716        -0.074674        -1.647433
 H         4.473913        -1.233297        -0.418176
 H         2.277545        -2.891843        -0.838353
 H         1.792415        -1.069106         2.002114
