19
Iteration:   666charge 0 multiplicity 1
 C        -0.130863         0.129246        -0.201808
 C         1.341776         0.172700         0.000533
 C         2.267885         1.404682         0.177615
 C         3.405038         0.313527         0.555141
 O         4.579312         0.880814         1.136203
 C         3.714469        -0.588567        -0.662869
 C         2.277984        -1.041095        -0.423328
 O         1.710159        -2.092341        -0.957959
 C         2.200384        -0.568959         1.061262
 H        -0.654658         0.551814         0.642417
 H        -0.411966         0.459303        -1.212397
 H        -0.506678        -0.943013        -0.269376
 H         2.284176         2.166867        -0.575668
 H         1.953759         2.015006         1.129793
 H         5.363045         0.245874         1.194918
 H         4.085120        -0.172435        -1.591866
 H         4.436299        -1.394795        -0.305894
 H         2.227883        -2.877228        -0.767007
 H         1.979768        -1.082555         1.934844
