19
Iteration:  2416charge 0 multiplicity 1
 C        -0.167083         0.224483        -0.213638
 C         1.414605         0.180002        -0.046967
 C         2.386888         1.406463        -0.009672
 C         3.413804         0.365907         0.557483
 O         4.506952         0.839790         1.332313
 C         3.701352        -0.604660        -0.599925
 C         2.200484        -1.070594        -0.405436
 O         1.775831        -2.346171        -0.895816
 C         2.238723        -0.476997         1.032025
 H        -0.729368         0.765324         0.504720
 H        -0.555855         0.720381        -1.132800
 H        -0.441979        -0.839928        -0.216966
 H         2.606091         1.894521        -0.974302
 H         1.986033         2.069892         0.668107
 H         5.196531         1.174995         0.818766
 H         3.935681        -0.160654        -1.598556
 H         4.491363        -1.309686        -0.255260
 H         1.004961        -2.151611        -1.465998
 H         2.033676        -0.933869         2.028685
