19
Iteration:  1439charge 0 multiplicity 1
 C        -0.049789         0.294803        -0.020421
 C         1.445816         0.177860        -0.016383
 C         2.448784         1.266960        -0.144898
 C         3.480496         0.357062         0.517920
 O         4.382797         0.951305         1.409595
 C         3.704103        -0.607553        -0.709882
 C         2.232352        -1.099587        -0.458500
 O         1.634199        -2.257042        -0.893884
 C         2.276604        -0.664906         1.017380
 H        -0.432393         1.082803         0.649847
 H        -0.357278         0.809575        -0.924803
 H        -0.593045        -0.655768         0.037809
 H         2.664428         1.529605        -1.177765
 H         2.210977         2.136234         0.475492
 H         3.893913         1.696934         1.737814
 H         4.016228        -0.141345        -1.663587
 H         4.407101        -1.421925        -0.511393
 H         1.667452        -2.314784        -1.889189
 H         2.102884        -1.102449         1.917792
