19
Iteration:  2632charge 0 multiplicity 1
 C        -0.009472         0.225741        -0.112636
 C         1.385960         0.164524         0.031119
 C         2.383059         1.364580        -0.074590
 C         3.473187         0.345872         0.561173
 O         4.455284         0.934647         1.362308
 C         3.713619        -0.665442        -0.610056
 C         2.239470        -1.123635        -0.472949
 O         1.701564        -2.235497        -0.962651
 C         2.187748        -0.563542         1.057046
 H        -0.620844         0.630099         0.752166
 H        -0.277531         0.758606        -1.054464
 H        -0.473274        -0.861288        -0.271701
 H         2.595747         1.561638        -1.087628
 H         2.080919         2.278634         0.546750
 H         4.556223         1.826134         0.872683
 H         4.015564        -0.432493        -1.643046
 H         4.401238        -1.462672        -0.140048
 H         1.335842        -2.035547        -1.818452
 H         1.710178        -1.001323         2.027541
