19
Iteration:   300
 C         0.011300        -0.033181        -0.044068
 C         1.438641         0.271006        -0.112290
 C         2.392137         1.487292         0.092395
 C         3.426288         0.408283         0.484378
 O         4.473042         0.731906         1.334598
 C         3.651142        -0.529146        -0.731806
 C         2.181568        -1.020787        -0.429799
 O         1.561469        -2.253667        -0.947301
 C         2.287683        -0.469010         1.028145
 H        -0.415196         0.679506         0.644221
 H        -0.246324         0.194322        -1.049349
 H        -0.455457        -0.934467         0.189968
 H         2.543185         2.111560        -0.788204
 H         2.071701         1.992439         0.927240
 H         5.134545         1.305133         0.969437
 H         3.898828        -0.112601        -1.607768
 H         4.431326        -1.240799        -0.445703
 H         2.323015        -2.809017        -1.235973
 H         1.799335        -0.783267         1.874204
