19
Iteration:   890charge 0 multiplicity 1
 C        -0.243921         0.199068         0.016174
 C         1.278533         0.102774         0.026968
 C         2.297977         1.393132         0.029312
 C         3.457392         0.367802         0.606003
 O         4.547632         0.859954         1.225071
 C         3.683024        -0.531797        -0.672633
 C         2.234844        -1.013517        -0.469975
 O         1.823902        -2.135748        -1.119865
 C         2.323405        -0.623443         1.040875
 H        -0.434582         1.051643         0.703405
 H        -0.549417         0.587322        -0.954946
 H        -0.872733        -0.694447         0.228600
 H         2.549747         1.671657        -1.026985
 H         1.825651         2.064576         0.652452
 H         5.098610         0.159579         1.600037
 H         3.857686        -0.201490        -1.707856
 H         4.314775        -1.315692        -0.239839
 H         2.098988        -2.953407        -0.608036
 H         2.106628        -1.244509         1.856055
