19
Iteration:  1627
 C        -0.204217         0.320463        -0.125486
 C         1.382253         0.181535        -0.063071
 C         2.353676         1.376108        -0.091509
 C         3.398927         0.414458         0.487133
 O         4.489630         0.613427         1.298628
 C         3.717255        -0.586782        -0.581269
 C         2.321785        -1.006459        -0.343881
 O         1.897068        -2.296795        -0.896987
 C         2.136537        -0.497617         1.007184
 H        -0.464323         1.153255         0.575185
 H        -0.507602         0.872454        -1.060949
 H        -0.766407        -0.606652         0.054568
 H         2.594481         1.713290        -1.101359
 H         1.926189         2.112621         0.536838
 H         4.663957         1.471691         1.594408
 H         3.944077        -0.305006        -1.631403
 H         4.504581        -1.294554        -0.224357
 H         1.150230        -2.187318        -1.528326
 H         1.816219        -1.001377         2.010206
