19
Iteration:  4019charge 0 multiplicity 1
 C        -0.027743         0.355162        -0.254181
 C         1.380117         0.134727         0.002471
 C         2.414869         1.284303        -0.110344
 C         3.365277         0.363844         0.538348
 O         4.459315         0.894754         1.337013
 C         3.763347        -0.610810        -0.565984
 C         2.284108        -1.112628        -0.382267
 O         1.638817        -2.327226        -0.899363
 C         2.269528        -0.580455         1.066622
 H        -0.355399         1.001787         0.554089
 H        -0.064530         0.876985        -1.220880
 H        -0.583923        -0.667864        -0.309863
 H         2.534456         1.713240        -1.148702
 H         1.980687         2.132533         0.547180
 H         4.441701         1.892453         1.079886
 H         4.025220        -0.326839        -1.560359
 H         4.408664        -1.411406        -0.215052
 H         0.818563        -1.953894        -1.307629
 H         2.145833        -0.931243         2.168254
