19
Iteration:  3630charge 0 multiplicity 1
 C        -0.095005         0.403742        -0.130580
 C         1.369209         0.137927        -0.137881
 C         2.372462         1.351213        -0.121199
 C         3.362926         0.370490         0.562284
 O         4.504353         0.793418         1.247341
 C         3.643367        -0.626267        -0.613561
 C         2.296367        -1.074275        -0.422354
 O         1.894254        -2.356997        -0.837635
 C         2.174657        -0.513259         1.052452
 H        -0.283586         0.974872         0.812447
 H        -0.333758         1.090858        -1.031627
 H        -0.823806        -0.414093        -0.063928
 H         2.557190         1.850848        -1.091950
 H         1.955542         1.989758         0.560669
 H         4.276155         1.253650         2.102577
 H         3.848732        -0.197978        -1.592982
 H         4.343045        -1.401443        -0.273206
 H         0.978101        -2.096202        -1.093775
 H         1.943014        -1.210475         1.959455
