19
Iteration:  3727charge 0 multiplicity 1
 C        -0.081382         0.287433        -0.339797
 C         1.412241         0.139054        -0.015012
 C         2.353307         1.358846        -0.027083
 C         3.469298         0.470757         0.544544
 O         4.619676         0.789016         1.184078
 C         3.614983        -0.576071        -0.536764
 C         2.165196        -1.052677        -0.360136
 O         1.653540        -2.290382        -0.897041
 C         2.225697        -0.562879         1.159253
 H        -0.712088         1.075130         0.054050
 H        -0.156807         0.383312        -1.447794
 H        -0.576507        -0.615599         0.088100
 H         2.446921         1.876625        -1.074721
 H         2.018042         2.049995         0.737206
 H         4.439667         1.432935         1.961166
 H         4.052638        -0.373017        -1.496897
 H         4.139911        -1.378553        -0.008295
 H         2.475133        -2.598012        -1.342322
 H         1.902788        -1.177995         1.954017
