19
Iteration:   362
 C         0.004903         0.257210        -0.106383
 C         1.448242         0.085587         0.129040
 C         2.266694         1.349694         0.015617
 C         3.422968         0.388517         0.496432
 O         4.427245         0.920785         1.296229
 C         3.719773        -0.577528        -0.701592
 C         2.224462        -1.123275        -0.384529
 O         1.592984        -2.148864        -1.101084
 C         2.340879        -0.687262         1.127003
 H        -0.381750         1.209819         0.326615
 H        -0.066337         0.475666        -1.210032
 H        -0.638045        -0.653262         0.091798
 H         2.336359         1.898286        -0.973828
 H         2.014311         2.116168         0.819855
 H         5.091466         1.172294         0.660668
 H         3.915099        -0.037769        -1.763215
 H         4.482900        -1.314136        -0.402949
 H         1.789267        -2.968783        -0.597921
 H         2.301750        -1.134400         2.137803
