19
Iteration:  3571charge 0 multiplicity 1
 C        -0.056635         0.185188        -0.284777
 C         1.445034         0.189531        -0.032601
 C         2.342423         1.323357        -0.018700
 C         3.459193         0.393045         0.538674
 O         4.544732         0.816195         1.259692
 C         3.672088        -0.614442        -0.672325
 C         2.242236        -1.005989        -0.382207
 O         1.613681        -2.153993        -0.769399
 C         2.221166        -0.654358         1.073674
 H        -0.544543         1.044335         0.240265
 H        -0.364480         0.285647        -1.415247
 H        -0.539969        -0.892522         0.041744
 H         2.627594         1.821933        -1.020148
 H         2.106728         2.109586         0.710752
 H         4.291615         1.605337         1.671522
 H         4.065473        -0.372212        -1.669658
 H         4.353719        -1.389777        -0.280291
 H         1.907839        -2.253466        -1.684637
 H         1.968001        -0.923687         2.026002
