19
Iteration:  4981
 C        -0.132056         0.383448        -0.043977
 C         1.329546         0.116052        -0.108633
 C         2.300203         1.342523        -0.070793
 C         3.357456         0.345952         0.562999
 O         4.367695         0.898300         1.260650
 C         3.783600        -0.609376        -0.552242
 C         2.327207        -1.049987        -0.431231
 O         1.913444        -2.300929        -0.913673
 C         2.176590        -0.609855         0.994269
 H        -0.332642         0.910339         0.919727
 H        -0.319616         1.136062        -0.854337
 H        -0.728606        -0.456866        -0.189320
 H         2.465318         1.949590        -0.909788
 H         2.073963         2.066359         0.772750
 H         5.080119         0.186681         1.463585
 H         4.050047        -0.048398        -1.537076
 H         4.568799        -1.436663        -0.524785
 H         1.292901        -2.121718        -1.654186
 H         1.953779        -1.341620         1.875598
