19
Iteration:   217charge 0 multiplicity 1
 C        -0.131838         0.233307        -0.022358
 C         1.355634         0.124522        -0.051601
 C         2.333606         1.382182         0.094932
 C         3.407715         0.422392         0.479430
 O         4.565320         0.860074         1.257612
 C         3.752313        -0.633594        -0.674249
 C         2.223084        -1.138403        -0.383936
 O         1.787591        -2.244218        -1.104123
 C         2.208293        -0.595136         1.068654
 H        -0.444897         0.837967         0.863883
 H        -0.599647         1.014275        -0.731745
 H        -0.589576        -0.772446        -0.073014
 H         2.291596         2.303633        -0.572541
 H         2.111255         1.824951         1.205901
 H         4.896608         1.722756         0.823672
 H         3.865082        -0.004026        -1.687457
 H         4.585440        -1.374561        -0.517455
 H         0.996784        -2.734167        -0.760078
 H         1.777545        -0.796540         1.970000
