19
Iteration:  3537charge 0 multiplicity 1
 C        -0.030696         0.051421        -0.301267
 C         1.458272         0.240093        -0.040143
 C         2.415837         1.372651        -0.066951
 C         3.493228         0.390883         0.517064
 O         4.532121         0.854568         1.296946
 C         3.743133        -0.576202        -0.646029
 C         2.251431        -1.048170        -0.284199
 O         1.409145        -2.205740        -0.882034
 C         2.294392        -0.579960         1.091728
 H        -0.673343         0.789377         0.314548
 H        -0.318719         0.119636        -1.396778
 H        -0.334140        -0.980535         0.239074
 H         2.693886         1.934432        -0.998715
 H         2.097938         2.091115         0.706499
 H         4.205928         1.475208         1.983508
 H         3.956106        -0.284919        -1.686056
 H         4.421789        -1.305596        -0.198870
 H         1.501588        -2.214472        -1.842975
 H         2.191864        -0.786465         2.119104
