19
Iteration:  4161charge 0 multiplicity 1
 C        -0.056565         0.274585        -0.329887
 C         1.441030         0.089123        -0.114571
 C         2.395959         1.193787        -0.035980
 C         3.502725         0.451310         0.555192
 O         4.494747         1.041367         1.300670
 C         3.714567        -0.653347        -0.558563
 C         2.186100        -1.138228        -0.372066
 O         1.543578        -2.132087        -0.890292
 C         2.265965        -0.584986         1.077544
 H        -0.365965         0.842875         0.507368
 H        -0.183282         0.826682        -1.226311
 H        -0.809420        -0.596985        -0.424349
 H         2.629571         1.725673        -0.953153
 H         1.786614         1.726106         0.681985
 H         4.971306         0.456573         2.040293
 H         3.979182        -0.564316        -1.651089
 H         4.289806        -1.520717        -0.096738
 H         2.072239        -2.935607        -1.012600
 H         1.927228        -0.653455         2.024243
