19
Iteration:   972charge 0 multiplicity 1
 C        -0.065429         0.067271        -0.143447
 C         1.400368         0.164942         0.080400
 C         2.366608         1.406645         0.037654
 C         3.406430         0.403546         0.529093
 O         4.426192         0.856317         1.375740
 C         3.757694        -0.488184        -0.762383
 C         2.313381        -1.032125        -0.506445
 O         1.557556        -2.094411        -0.894551
 C         2.280685        -0.663364         0.965919
 H        -0.700773         0.512380         0.629693
 H        -0.300521         0.494819        -1.143304
 H        -0.310555        -0.958940        -0.173131
 H         2.550851         1.844943        -0.865573
 H         2.167954         2.281291         0.664884
 H         5.147083         0.310799         1.122910
 H         3.989118        -0.056315        -1.751170
 H         4.606902        -1.165286        -0.651799
 H         1.759205        -2.992723        -0.554561
 H         2.135714        -1.323655         1.736470
