19
Iteration:   330
 C        -0.205970         0.042549        -0.156972
 C         1.360742         0.170208         0.006662
 C         2.338834         1.410430        -0.010741
 C         3.453803         0.391155         0.539827
 O         4.619521         0.774120         1.238613
 C         3.668075        -0.585727        -0.620082
 C         2.202758        -1.002679        -0.285963
 O         1.660170        -2.045903        -1.017465
 C         2.278039        -0.619604         1.129686
 H        -0.674828         0.950314         0.267831
 H        -0.457020         0.161350        -1.206772
 H        -0.673814        -0.909072         0.212198
 H         2.532406         1.835996        -1.027817
 H         2.051174         2.128344         0.791847
 H         5.201596         1.335862         0.681656
 H         3.939124        -0.162426        -1.658170
 H         4.414024        -1.335436        -0.375434
 H         2.324160        -2.646935        -1.348534
 H         2.021532        -1.251532         2.019560
