19
Iteration:  3707
 C        -0.069949         0.152895        -0.292303
 C         1.394372         0.181506        -0.029184
 C         2.348101         1.415939        -0.013320
 C         3.384282         0.359538         0.580533
 O         4.607979         0.821925         1.169247
 C         3.739597        -0.685945        -0.511750
 C         2.302214        -1.108782        -0.351394
 O         1.600829        -2.130542        -0.920457
 C         2.119633        -0.528771         1.034671
 H        -0.612145         0.930137         0.374227
 H        -0.363860         0.482779        -1.355734
 H        -0.484586        -0.804459         0.068688
 H         2.791358         1.890362        -0.937618
 H         2.127247         2.162075         0.701147
 H         4.477715         1.664522         1.723534
 H         3.966504        -0.190214        -1.463505
 H         4.542558        -1.353388        -0.218885
 H         2.060889        -2.989524        -0.737364
 H         1.844433        -0.863408         1.969527
