19
Iteration:  1478
 C        -0.123165         0.393500        -0.192480
 C         1.380917         0.116817        -0.042557
 C         2.224681         1.417785         0.044131
 C         3.420750         0.389885         0.538785
 O         4.648049         0.758505         1.197701
 C         3.629973        -0.557795        -0.591048
 C         2.231077        -1.063050        -0.434449
 O         1.874620        -2.373348        -0.914018
 C         2.220937        -0.539328         1.013041
 H        -0.371696         1.112751         0.544357
 H        -0.318497         0.551216        -1.254389
 H        -0.739916        -0.477517         0.148328
 H         2.418620         2.069611        -0.849180
 H         1.689958         2.097568         0.761237
 H         4.314091         1.083362         2.070117
 H         4.060562        -0.331799        -1.581984
 H         4.242991        -1.297276        -0.045897
 H         0.981915        -2.415144        -1.260385
 H         1.867447        -1.029065         2.013028
