19
Iteration:  2076
 C        -0.143626         0.323310        -0.223131
 C         1.320069         0.209512        -0.124882
 C         2.352824         1.427201        -0.093417
 C         3.372763         0.375717         0.529499
 O         4.568579         0.627835         1.282736
 C         3.696757        -0.605931        -0.624270
 C         2.285503        -1.031077        -0.359420
 O         1.778846        -2.341350        -0.811354
 C         2.160330        -0.400207         1.040636
 H        -0.461815         0.841800         0.729286
 H        -0.181683         0.943016        -1.207501
 H        -0.706543        -0.694793        -0.439274
 H         2.706400         1.935231        -1.001636
 H         1.848864         2.145936         0.662362
 H         4.203466         1.058333         2.117374
 H         3.854455        -0.150434        -1.564822
 H         4.461353        -1.353164        -0.263242
 H         2.618088        -2.752918        -1.159210
 H         1.876187        -0.719774         1.961388
