19
Iteration:  4778charge 0 multiplicity 1
 C        -0.120809         0.133220        -0.177931
 C         1.440727         0.250928        -0.023931
 C         2.334646         1.441812         0.065339
 C         3.420171         0.425506         0.532138
 O         4.527423         0.777512         1.392087
 C         3.698520        -0.590506        -0.670933
 C         2.323939        -1.108758        -0.512582
 O         1.676226        -2.274336        -0.854734
 C         2.195872        -0.535822         0.922616
 H        -0.612724         0.195926         0.839492
 H        -0.576868         0.946157        -0.758735
 H        -0.377271        -0.863212        -0.571525
 H         2.467771         1.926953        -0.924980
 H         1.983375         2.132282         0.801036
 H         4.648237         1.688432         1.443948
 H         4.103573        -0.036969        -1.666463
 H         4.418361        -1.321049        -0.297189
 H         1.653643        -2.446082        -1.825949
 H         1.832384        -1.046779         1.870649
