19
Iteration:  4756
 C        -0.093742        -0.036683        -0.288160
 C         1.424005         0.202561         0.004151
 C         2.293819         1.506346        -0.007764
 C         3.431025         0.437914         0.457808
 O         4.512665         0.625465         1.348582
 C         3.733719        -0.521839        -0.634411
 C         2.231597        -0.993210        -0.373289
 O         1.630140        -2.165263        -0.853696
 C         2.310381        -0.489669         1.063708
 H        -0.705481         0.089228         0.632997
 H        -0.480909         0.599223        -1.109346
 H        -0.127822        -1.098170        -0.566656
 H         2.556130         2.002571        -0.947733
 H         1.971922         2.131516         0.800285
 H         4.677014         1.632705         1.540263
 H         4.100802        -0.148269        -1.705455
 H         4.326539        -1.340633        -0.280466
 H         1.511137        -2.002473        -1.798549
 H         2.227250        -1.068899         1.978420
