19
Iteration:  2229
 C        -0.026113         0.329253        -0.257643
 C         1.392275         0.176828        -0.118123
 C         2.335116         1.425509        -0.006061
 C         3.412454         0.382744         0.520698
 O         4.413531         0.824688         1.375180
 C         3.668935        -0.580818        -0.636728
 C         2.215436        -1.070508        -0.465042
 O         1.709239        -2.345816        -0.784357
 C         2.259343        -0.570230         0.971552
 H        -0.437020         0.949867         0.496927
 H        -0.150235         1.063840        -1.105353
 H        -0.541922        -0.654986        -0.407866
 H         2.729887         2.042179        -0.899953
 H         1.790064         2.154684         0.683045
 H         5.261501         0.678146         1.012034
 H         4.045376        -0.262583        -1.630176
 H         4.351372        -1.438748        -0.244091
 H         2.354443        -2.941781        -0.323898
 H         1.845286        -0.939515         1.983023
