19
Iteration:  3980charge 0 multiplicity 1
 C        -0.164604         0.196228        -0.264818
 C         1.386528         0.230224        -0.071633
 C         2.411342         1.289700        -0.049433
 C         3.509559         0.316888         0.573234
 O         4.574794         0.956971         1.202615
 C         3.751699        -0.728550        -0.508953
 C         2.223078        -1.098916        -0.328470
 O         1.614510        -2.217481        -0.903387
 C         2.169953        -0.481283         1.032768
 H        -0.603961         0.650624         0.639262
 H        -0.636932         0.629997        -1.164575
 H        -0.599098        -0.789362        -0.237795
 H         2.796196         1.798249        -0.906455
 H         2.265149         1.966146         0.757228
 H         4.227117         1.491419         1.896217
 H         4.202450        -0.335996        -1.500232
 H         4.331541        -1.503317         0.013672
 H         1.951339        -2.244555        -1.838187
 H         1.900044        -0.758088         2.076049
