19
Iteration:  2484
 C        -0.105455         0.224051        -0.115749
 C         1.398221         0.180556        -0.062002
 C         2.371623         1.272273        -0.075972
 C         3.507147         0.380990         0.464550
 O         4.481517         1.038901         1.342057
 C         3.702156        -0.662756        -0.638888
 C         2.301805        -1.108184        -0.361750
 O         1.685490        -2.199913        -0.917389
 C         2.198826        -0.644092         1.066457
 H        -0.697427         0.664323         0.690577
 H        -0.553643         0.942972        -0.939366
 H        -0.373450        -0.780105        -0.339092
 H         2.625474         1.699506        -1.055670
 H         2.168921         2.098032         0.507015
 H         4.593398         0.608232         2.259514
 H         3.815605        -0.150808        -1.687957
 H         4.377943        -1.504602        -0.510931
 H         1.357083        -2.008489        -1.841072
 H         1.839940        -1.272686         1.924700
