19
Iteration:  3171
 C        -0.096982         0.376332        -0.272731
 C         1.367699         0.222021        -0.062140
 C         2.289203         1.389445        -0.022795
 C         3.425825         0.411328         0.498208
 O         4.559291         0.722308         1.255358
 C         3.677613        -0.630041        -0.689211
 C         2.206560        -1.069627        -0.350455
 O         1.786495        -2.337795        -0.726201
 C         2.193606        -0.544651         1.028577
 H        -0.623439         1.119580         0.353954
 H        -0.434982         0.712483        -1.240402
 H        -0.519340        -0.558581        -0.046253
 H         2.642715         1.932477        -0.964430
 H         1.939740         2.109413         0.644943
 H         4.225524         1.128687         2.015896
 H         3.847678        -0.081864        -1.623066
 H         4.594366        -1.229291        -0.576229
 H         2.362603        -2.606892        -1.456914
 H         1.984659        -1.116273         1.995579
