19
Iteration:  4592
 C        -0.013595         0.109717        -0.276154
 C         1.358248         0.156006         0.021789
 C         2.379511         1.386439         0.012142
 C         3.448839         0.447086         0.584546
 O         4.611805         0.873375         1.274968
 C         3.689085        -0.600253        -0.579430
 C         2.217676        -1.031560        -0.460335
 O         1.569714        -2.230558        -0.830657
 C         2.235174        -0.577150         0.955988
 H        -0.749175         0.209196         0.590220
 H        -0.141496         0.911007        -1.076226
 H        -0.254053        -0.853835        -0.650118
 H         2.458093         1.865166        -0.993773
 H         1.933680         2.040535         0.899081
 H         4.500759         1.571410         1.843104
 H         4.151261        -0.319990        -1.478853
 H         4.233406        -1.448476        -0.226260
 H         1.276482        -2.145628        -1.772521
 H         2.222193        -1.367734         1.776935
