19
Iteration:   946
 C        -0.090279         0.136256        -0.050153
 C         1.445727         0.118487        -0.093409
 C         2.348495         1.300212         0.072235
 C         3.468454         0.360694         0.549186
 O         4.415036         1.044636         1.340535
 C         3.751410        -0.626559        -0.617926
 C         2.239319        -1.050107        -0.513116
 O         1.504224        -2.110483        -1.042775
 C         2.390654        -0.633552         1.004455
 H        -0.399591         0.601062         0.868289
 H        -0.547721         0.512421        -0.965006
 H        -0.511932        -0.917383         0.081033
 H         2.414154         2.167797        -0.696871
 H         1.974605         1.874293         0.876478
 H         5.213812         0.532149         1.312692
 H         4.094705        -0.369960        -1.660857
 H         4.509105        -1.369432        -0.366465
 H         1.998988        -2.824003        -1.450261
 H         2.201835        -0.975424         2.133886
