19
Iteration:  3825charge 0 multiplicity 1
 C        -0.024195         0.165020        -0.162469
 C         1.445870         0.204840        -0.011879
 C         2.450013         1.353421        -0.185059
 C         3.348008         0.391079         0.557362
 O         4.453197         0.819768         1.209595
 C         3.691299        -0.739777        -0.522511
 C         2.218154        -1.080679        -0.324700
 O         1.730538        -2.177215        -0.997270
 C         2.232600        -0.464031         1.153966
 H        -0.614580         0.576815         0.608985
 H        -0.405895         0.628363        -1.056231
 H        -0.264300        -0.954053        -0.228062
 H         2.825510         1.687919        -1.195650
 H         2.277067         2.284010         0.427459
 H         4.046232         1.452228         1.900674
 H         4.190391        -0.430250        -1.487222
 H         4.349546        -1.547196        -0.185527
 H         0.808131        -1.935104        -1.218738
 H         1.826050        -0.576996         2.094979
