19
Iteration:   754
 C        -0.087374         0.245342         0.053364
 C         1.383550         0.131139         0.009849
 C         2.391717         1.328462         0.093678
 C         3.438369         0.428942         0.565288
 O         4.503579         1.085784         1.267310
 C         3.725101        -0.592089        -0.646332
 C         2.206719        -1.093556        -0.520955
 O         1.641800        -2.200756        -1.142400
 C         2.236152        -0.724834         0.935020
 H        -0.397683         0.843787         0.909055
 H        -0.615371         0.319972        -0.915186
 H        -0.397701        -0.797478         0.254515
 H         2.636595         1.715108        -0.892913
 H         1.908566         2.084946         0.817689
 H         4.928871         0.402639         1.873293
 H         3.988162        -0.126308        -1.558162
 H         4.434597        -1.333686        -0.237471
 H         1.980682        -3.051199        -0.881694
 H         1.984781        -1.452298         1.855453
