19
Iteration:  4359
 C        -0.123891         0.226413        -0.192745
 C         1.385971         0.161275        -0.024391
 C         2.514303         1.485929        -0.136594
 C         3.408610         0.386862         0.488003
 O         4.432982         0.713363         1.414525
 C         3.718383        -0.500137        -0.780920
 C         2.263944        -1.042176        -0.403148
 O         1.642083        -2.348719        -0.707206
 C         2.249589        -0.501754         1.012722
 H        -0.746287         0.587817         0.612248
 H        -0.413283         0.702672        -1.149440
 H        -0.289587        -0.921309        -0.307979
 H         2.627918         1.817997        -1.170659
 H         2.223922         2.311692         0.519108
 H         4.411713         1.633728         1.663246
 H         4.150490        -0.014376        -1.689179
 H         4.406612        -1.366393        -0.433559
 H         1.706489        -2.601124        -1.644104
 H         2.027826        -1.159673         1.859693
