19
Iteration:  2452charge 0 multiplicity 1
 C        -0.032437         0.115497        -0.094498
 C         1.443589         0.190293        -0.093738
 C         2.345408         1.357881        -0.109701
 C         3.463085         0.378729         0.521259
 O         4.398706         0.917258         1.303757
 C         3.731023        -0.660383        -0.509418
 C         2.290194        -1.062307        -0.426199
 O         1.636723        -2.200819        -0.973087
 C         2.221407        -0.451015         1.089388
 H        -0.479087         0.095510         0.902652
 H        -0.395164         0.728419        -0.978118
 H        -0.312952        -0.844328        -0.462871
 H         2.692691         1.713075        -1.059489
 H         2.085707         2.158113         0.533847
 H         5.059844         0.272960         1.259143
 H         4.255554        -0.257014        -1.471368
 H         4.402684        -1.408853        -0.095169
 H         0.810345        -1.946172        -1.392310
 H         2.074855        -0.961404         2.066528
