19
Iteration:  1472charge 0 multiplicity 1
 C        -0.097229         0.403431        -0.150093
 C         1.381807         0.134920        -0.048847
 C         2.244167         1.372960         0.007920
 C         3.422221         0.412010         0.481244
 O         4.579541         0.776203         1.216862
 C         3.670196        -0.562862        -0.592329
 C         2.248909        -1.088204        -0.414382
 O         1.862463        -2.355826        -0.908774
 C         2.203299        -0.588951         1.029282
 H        -0.400748         1.282605         0.548636
 H        -0.373564         0.666416        -1.230770
 H        -0.821962        -0.429839         0.106889
 H         2.390277         1.991966        -0.869046
 H         1.825645         1.959865         0.840214
 H         4.398413         1.115015         2.154250
 H         3.995582        -0.251299        -1.609084
 H         4.313690        -1.300565        -0.084329
 H         1.016937        -2.368034        -1.373917
 H         2.030629        -0.973645         1.944614
