19
Iteration:  2177charge 0 multiplicity 1
 C         0.018021         0.088624        -0.325063
 C         1.402684         0.226791        -0.038962
 C         2.410013         1.353648        -0.093504
 C         3.381438         0.349489         0.536096
 O         4.558006         0.783552         1.387146
 C         3.609048        -0.616981        -0.595024
 C         2.182505        -1.041380        -0.385547
 O         1.569433        -2.156011        -0.921877
 C         2.255912        -0.455895         1.134965
 H        -0.638346         0.956389         0.138001
 H         0.095967         0.045870        -1.478735
 H        -0.342390        -0.841212         0.093903
 H         2.603651         1.791817        -1.050273
 H         2.072899         2.275754         0.519915
 H         4.865312         1.658654         1.297236
 H         4.013568        -0.231215        -1.545575
 H         4.315834        -1.310227        -0.218113
 H         2.190528        -2.895215        -1.021073
 H         1.971704        -0.913421         2.148537
