19
Iteration:  4011
 C         0.085723         0.329845        -0.266627
 C         1.480949         0.134477         0.032131
 C         2.336952         1.288138        -0.130047
 C         3.421074         0.366587         0.548711
 O         4.442776         0.913467         1.273783
 C         3.686127        -0.621896        -0.512556
 C         2.251766        -1.091198        -0.348246
 O         1.618387        -2.322477        -0.915326
 C         2.217241        -0.596191         1.058308
 H        -0.341100         0.871371         0.585906
 H        -0.242784         0.960450        -1.100330
 H        -0.481871        -0.653873        -0.175346
 H         2.644125         1.586317        -1.094468
 H         2.079313         2.173502         0.515615
 H         4.418067         1.936985         1.205796
 H         4.107236        -0.328034        -1.522396
 H         4.414895        -1.265021        -0.050280
 H         1.038983        -1.771869        -1.476301
 H         1.939798        -1.265979         1.918996
