19
Iteration:  4841
 C        -0.143156         0.422742        -0.094950
 C         1.368001         0.071999         0.032573
 C         2.289552         1.340512        -0.044349
 C         3.394704         0.380849         0.545051
 O         4.485627         0.901863         1.295610
 C         3.710487        -0.569284        -0.542292
 C         2.316701        -1.135753        -0.431856
 O         1.825141        -2.359259        -1.039498
 C         2.279878        -0.628093         0.974548
 H        -0.465424         1.303400         0.513812
 H        -0.330887         0.678736        -1.162413
 H        -0.799214        -0.372447         0.131845
 H         2.443207         1.933365        -1.021911
 H         2.003050         2.116578         0.688663
 H         4.071182         1.027092         2.097275
 H         4.061280        -0.086161        -1.423950
 H         4.403766        -1.298278        -0.217187
 H         1.291818        -2.139898        -1.838949
 H         2.077714        -1.022846         1.984730
