19
Iteration:  4146
 C        -0.031538         0.293071        -0.316397
 C         1.434848         0.107033        -0.061756
 C         2.374775         1.310938        -0.014211
 C         3.434398         0.284945         0.587037
 O         4.464714         1.121198         1.222974
 C         3.769614        -0.735581        -0.549288
 C         2.314930        -1.131809        -0.363855
 O         1.478514        -2.151213        -0.946919
 C         2.221062        -0.621774         1.081157
 H        -0.380225         1.096829         0.430860
 H        -0.125853         0.662223        -1.388408
 H        -0.500900        -0.649834        -0.179801
 H         2.607455         1.902609        -0.927299
 H         2.227282         2.027078         0.784259
 H         4.724410         0.586576         1.985236
 H         4.186890        -0.197065        -1.447357
 H         4.504842        -1.530110        -0.204165
 H         1.950728        -2.973577        -0.777060
 H         1.798222        -1.086954         2.065169
