19
Iteration:   539charge 0 multiplicity 1
 C        -0.077860         0.093165        -0.090352
 C         1.451759         0.158399         0.041161
 C         2.400775         1.400778        -0.040591
 C         3.445247         0.391802         0.552554
 O         4.530473         0.801271         1.261270
 C         3.595720        -0.448407        -0.779419
 C         2.223008        -1.054898        -0.393621
 O         1.695565        -2.211499        -0.990406
 C         2.181160        -0.518244         1.101031
 H        -0.531664         1.003524         0.344896
 H        -0.412729         0.269317        -1.094346
 H        -0.438992        -0.769494         0.398022
 H         2.730595         1.685064        -1.045123
 H         2.127281         2.125249         0.653526
 H         4.615198         0.276187         2.024542
 H         3.708045         0.082041        -1.741149
 H         4.409524        -1.093407        -0.674218
 H         2.225915        -3.010700        -0.816339
 H         1.624847        -0.840735         2.039442
