19
Iteration:  3266charge 0 multiplicity 1
 C        -0.097912         0.172325        -0.172064
 C         1.415070         0.186691         0.028032
 C         2.333107         1.397170        -0.174849
 C         3.391497         0.450811         0.486023
 O         4.585715         0.736243         1.259967
 C         3.741371        -0.633160        -0.485703
 C         2.264083        -1.043986        -0.367080
 O         1.732230        -2.230964        -0.928481
 C         2.160407        -0.480360         1.044641
 H        -0.682598         0.660871         0.585159
 H        -0.420596         0.747363        -1.133834
 H        -0.457732        -0.905108        -0.208494
 H         2.721007         1.623615        -1.081453
 H         2.066648         2.321789         0.404609
 H         4.299792         1.393778         1.947118
 H         3.999614        -0.542843        -1.580975
 H         4.410983        -1.401416        -0.081516
 H         0.832054        -2.155369        -1.337960
 H         1.975179        -0.994952         1.992854
