19
Iteration:  3765charge 0 multiplicity 1
 C        -0.057240         0.387120        -0.329539
 C         1.397421         0.166890        -0.032249
 C         2.392654         1.376881        -0.043327
 C         3.411829         0.429969         0.421877
 O         4.475515         0.767218         1.264240
 C         3.689545        -0.576302        -0.649684
 C         2.292756        -1.132011        -0.324008
 O         1.746536        -2.326458        -0.731764
 C         2.192491        -0.595881         1.059586
 H        -0.448730         1.265865         0.297452
 H        -0.437025         0.342003        -1.394199
 H        -0.501559        -0.495285         0.185802
 H         2.723036         1.939897        -0.878152
 H         2.205563         2.049272         0.826805
 H         4.061719         1.274211         1.936651
 H         3.723323         0.000834        -1.623661
 H         4.588058        -1.218724        -0.364928
 H         1.251659        -2.234303        -1.559991
 H         1.767852        -1.237400         1.943931
