19
Iteration:  4302
 C        -0.062958         0.236634        -0.208234
 C         1.381467         0.118811        -0.055634
 C         2.397580         1.391029        -0.102538
 C         3.393471         0.400034         0.603075
 O         4.543669         0.927578         1.185099
 C         3.691833        -0.677176        -0.457553
 C         2.276324        -1.133850        -0.339843
 O         1.681009        -2.217409        -0.965911
 C         2.211533        -0.563480         1.019888
 H        -0.480381         1.068450         0.356138
 H        -0.521988         0.233517        -1.201323
 H        -0.735710        -0.584375         0.291619
 H         2.460700         1.684781        -1.194017
 H         2.257456         2.253135         0.533309
 H         4.635197         0.537691         2.132709
 H         4.143558        -0.228417        -1.357005
 H         4.440610        -1.357109         0.041123
 H         1.016752        -1.853919        -1.574446
 H         2.035939        -0.951711         2.066384
