19
Iteration:   965charge 0 multiplicity 1
 C        -0.057779         0.074580        -0.108299
 C         1.372871         0.133842         0.055495
 C         2.339579         1.376448         0.052477
 C         3.466351         0.423381         0.492277
 O         4.405985         0.903330         1.374634
 C         3.827542        -0.508924        -0.764663
 C         2.325641        -1.068405        -0.475431
 O         1.486881        -2.093827        -0.910675
 C         2.259930        -0.642905         0.938041
 H        -0.601393         0.535988         0.786189
 H        -0.292874         0.442917        -1.117402
 H        -0.442737        -0.977350        -0.164362
 H         2.621927         1.974088        -0.924389
 H         2.310047         2.210080         0.887476
 H         5.279889         0.460892         1.219452
 H         4.251971         0.028248        -1.631825
 H         4.570433        -1.334884        -0.508566
 H         1.922039        -2.943774        -0.862186
 H         1.981763        -1.361768         1.733347
