19
Iteration:  1631
 C        -0.186638         0.300605        -0.129526
 C         1.387253         0.161966        -0.064290
 C         2.363567         1.371525        -0.084659
 C         3.406869         0.449954         0.489452
 O         4.479560         0.610695         1.302516
 C         3.728345        -0.607682        -0.630328
 C         2.292349        -1.020933        -0.389540
 O         1.889317        -2.251036        -0.862986
 C         2.126430        -0.533789         1.045033
 H        -0.407168         1.170226         0.610246
 H        -0.358536         0.784379        -1.120859
 H        -0.755017        -0.626317        -0.020576
 H         2.750701         1.724993        -1.094104
 H         1.932473         2.155249         0.559115
 H         4.515283         1.599638         1.595356
 H         3.951403        -0.187817        -1.634993
 H         4.435253        -1.299901        -0.157805
 H         1.080834        -2.123282        -1.368378
 H         1.856531        -0.997787         1.886423
