19
Iteration:  2063
 C        -0.042461         0.309899        -0.275801
 C         1.453354         0.205281        -0.090752
 C         2.327369         1.431897        -0.072340
 C         3.404285         0.490222         0.529860
 O         4.533533         0.601669         1.304055
 C         3.624406        -0.542255        -0.626743
 C         2.198440        -1.088952        -0.417353
 O         1.750879        -2.305071        -0.719214
 C         2.181804        -0.504637         0.987667
 H        -0.646639         0.583218         0.556676
 H        -0.409579         1.000456        -1.080594
 H        -0.473600        -0.723116        -0.540973
 H         2.477087         2.043126        -1.048617
 H         1.921809         2.177592         0.649539
 H         4.503573         1.252907         2.023836
 H         4.085953        -0.305324        -1.572406
 H         4.310404        -1.353084        -0.244755
 H         2.345190        -2.728657        -1.329996
 H         1.882480        -0.889351         1.937484
