19
Iteration:  2081
 C        -0.199922         0.342512        -0.240611
 C         1.335985         0.215103        -0.126786
 C         2.361876         1.397591        -0.108436
 C         3.377282         0.366204         0.545413
 O         4.564379         0.658926         1.276698
 C         3.684092        -0.632683        -0.606387
 C         2.299113        -1.073760        -0.347036
 O         1.789989        -2.324915        -0.846396
 C         2.167247        -0.399182         1.057986
 H        -0.432813         0.837172         0.745243
 H        -0.333610         0.843461        -1.159991
 H        -0.736704        -0.535210        -0.261643
 H         2.658521         2.012664        -0.985001
 H         2.196707         2.196557         0.629544
 H         4.108598         0.977074         2.087682
 H         3.912286        -0.105801        -1.611529
 H         4.548851        -1.226101        -0.365834
 H         2.637588        -2.698767        -1.047237
 H         1.774923        -0.816305         2.108458
