19
Iteration:   233
 C        -0.128619         0.301192         0.008854
 C         1.406846         0.131223         0.033238
 C         2.334383         1.380917         0.067390
 C         3.468854         0.383114         0.532028
 O         4.474917         0.915078         1.337597
 C         3.580142        -0.636958        -0.757356
 C         2.276727        -1.092284        -0.419478
 O         1.789988        -2.271945        -1.131709
 C         2.262085        -0.601793         1.013310
 H        -0.435632         0.711762         0.965383
 H        -0.341348         0.890431        -0.842233
 H        -0.710486        -0.613030        -0.165092
 H         2.644727         1.811464        -0.861126
 H         1.998387         2.028362         0.808102
 H         4.904852         1.616948         0.778380
 H         3.818977        -0.324294        -1.708952
 H         4.324417        -1.359663        -0.456404
 H         1.327938        -2.784783        -0.466481
 H         2.140312        -1.224160         2.029741
