19
Iteration:   639
 C        -0.045337         0.274979        -0.198526
 C         1.380162         0.109159         0.171296
 C         2.266731         1.308301         0.117201
 C         3.448938         0.410418         0.510935
 O         4.514256         1.039053         1.215322
 C         3.669039        -0.566729        -0.616051
 C         2.231811        -1.142733        -0.391021
 O         1.622764        -2.181564        -1.153421
 C         2.337004        -0.693098         1.115209
 H        -0.645272         0.684483         0.641273
 H        -0.174475         0.770411        -1.156743
 H        -0.404449        -0.696428        -0.427790
 H         2.242920         1.688579        -0.965384
 H         2.035929         2.071456         0.782664
 H         5.399757         0.608143         1.017637
 H         4.053943        -0.276936        -1.626818
 H         4.331718        -1.206524        -0.112837
 H         1.664090        -2.999535        -0.663657
 H         2.150163        -1.325641         2.125192
