19
Iteration:  1519charge 0 multiplicity 1
 C        -0.025920         0.069875        -0.328285
 C         1.399080         0.241602         0.039178
 C         2.402391         1.396115         0.060110
 C         3.395316         0.374160         0.525197
 O         4.541905         0.721317         1.223092
 C         3.632502        -0.615175        -0.719501
 C         2.290804        -1.050466        -0.315278
 O         1.703789        -2.120368        -0.951614
 C         2.206488        -0.499150         1.121933
 H        -0.703013         0.667398         0.365967
 H        -0.254995         0.292009        -1.378265
 H        -0.464760        -0.913211        -0.199153
 H         2.704329         1.952937        -0.911552
 H         2.235063         2.128626         0.825273
 H         4.384001         1.517368         1.773365
 H         3.731634         0.036148        -1.562429
 H         4.389899        -1.380718        -0.525756
 H         1.032543        -2.521874        -0.328906
 H         1.727879        -0.970298         2.109262
