19
Iteration:  4449
 C        -0.109287         0.151007        -0.214237
 C         1.409668         0.146166        -0.004670
 C         2.378487         1.302664        -0.093769
 C         3.448160         0.366319         0.548872
 O         4.524854         0.927194         1.272283
 C         3.720727        -0.630107        -0.577177
 C         2.289303        -1.091630        -0.361100
 O         1.622950        -2.158695        -0.907244
 C         2.247275        -0.536781         1.039270
 H        -0.731275         0.903775         0.315541
 H        -0.369578         0.256334        -1.299630
 H        -0.503222        -0.796045         0.108861
 H         2.528920         1.744400        -1.050010
 H         2.107379         2.093478         0.662156
 H         4.532161         0.621363         2.157494
 H         3.995891        -0.197068        -1.601278
 H         4.512470        -1.335439        -0.334748
 H         1.343666        -1.813337        -1.782828
 H         1.922977        -0.834381         2.057219
