19
Iteration:  4638charge 0 multiplicity 1
 C        -0.060919         0.176934        -0.101658
 C         1.409685         0.217449        -0.091064
 C         2.366095         1.406944        -0.126170
 C         3.430827         0.414042         0.504548
 O         4.492762         0.689434         1.397965
 C         3.614955        -0.508255        -0.681257
 C         2.257329        -1.076844        -0.390491
 O         1.763141        -2.293516        -0.896853
 C         2.207614        -0.501710         1.016738
 H        -0.386817         0.886684         0.686670
 H        -0.501763         0.355250        -1.087820
 H        -0.231473        -0.825210         0.365951
 H         2.819503         1.912578        -0.986083
 H         2.040126         2.200225         0.693428
 H         4.074165         1.398498         1.854183
 H         3.746221        -0.154426        -1.690485
 H         4.435472        -1.165027        -0.375494
 H         1.630279        -2.312928        -1.870200
 H         1.889393        -0.754162         1.943870
