19
Iteration:  2363charge 0 multiplicity 1
 C        -0.087942         0.285509        -0.264489
 C         1.389963         0.118642        -0.055423
 C         2.362132         1.367355         0.074138
 C         3.446664         0.358255         0.433100
 O         4.461720         0.822678         1.400104
 C         3.689185        -0.517890        -0.742624
 C         2.247727        -1.093901        -0.397690
 O         1.626327        -2.318860        -0.761305
 C         2.311308        -0.539002         0.978000
 H        -0.507013         1.230213         0.073598
 H        -0.213324         0.071302        -1.447823
 H        -0.787075        -0.418395         0.169623
 H         2.445830         2.053718        -0.811988
 H         2.284386         2.006831         1.062231
 H         4.638588         1.705477         1.526940
 H         3.962268        -0.126089        -1.796305
 H         4.387154        -1.329791        -0.508549
 H         2.037226        -2.543593        -1.609813
 H         2.341304        -1.038389         1.949294
