19
Iteration:  1008charge 0 multiplicity 1
 C        -0.173289         0.203005        -0.227807
 C         1.365201         0.188888         0.065805
 C         2.311204         1.428807         0.155201
 C         3.391717         0.433516         0.521343
 O         4.618478         0.770681         1.263024
 C         3.595411        -0.509571        -0.794142
 C         2.266595        -1.083446        -0.359349
 O         1.885110        -2.268822        -1.004960
 C         2.207630        -0.513530         1.053420
 H        -0.815752         0.758811         0.544651
 H        -0.303600         0.615454        -1.246301
 H        -0.623348        -0.827302        -0.351608
 H         2.385238         2.082182        -0.704282
 H         1.900843         1.914171         1.119598
 H         4.993238        -0.100575         1.404651
 H         3.415846        -0.030535        -1.759617
 H         4.506505        -1.149134        -0.680831
 H         1.282279        -2.784935        -0.442609
 H         1.953771        -0.846009         2.126289
