19
Iteration:  1388charge 0 multiplicity 1
 C        -0.096698         0.044930        -0.159821
 C         1.443094         0.258800        -0.062908
 C         2.320799         1.420439        -0.053880
 C         3.437090         0.398431         0.504034
 O         4.484722         0.741043         1.294837
 C         3.682287        -0.642517        -0.566338
 C         2.279737        -1.063187        -0.345023
 O         1.661822        -2.168682        -0.885479
 C         2.223057        -0.428031         1.049501
 H        -0.639363         0.442035         0.732887
 H        -0.663431         0.535154        -1.061152
 H        -0.308618        -1.012244        -0.189941
 H         2.673769         2.183689        -0.889409
 H         2.014847         2.091497         0.749101
 H         5.123920         0.902551         0.580096
 H         4.060885        -0.290357        -1.531228
 H         4.424640        -1.385221        -0.255296
 H         1.947834        -2.219214        -1.836261
 H         1.856531        -0.842542         1.892345
