19
Iteration:  2232
 C        -0.028520         0.320730        -0.231208
 C         1.390773         0.188788        -0.133474
 C         2.355272         1.428293        -0.010437
 C         3.420052         0.393108         0.499932
 O         4.408051         0.854337         1.394028
 C         3.670900        -0.604018        -0.647770
 C         2.210178        -1.070306        -0.466410
 O         1.707419        -2.358326        -0.791773
 C         2.253209        -0.596378         0.988446
 H        -0.483998         1.005056         0.450895
 H        -0.130227         1.068181        -1.056643
 H        -0.509019        -0.590158        -0.467456
 H         2.719473         1.989814        -0.885345
 H         1.789766         2.154796         0.698199
 H         5.264063         0.579646         0.984999
 H         4.088496        -0.163082        -1.580845
 H         4.334411        -1.339718        -0.239881
 H         2.231526        -2.966091        -0.277438
 H         1.888317        -0.971404         1.869820
