19
Iteration:  4661
 C        -0.161876         0.371528        -0.051795
 C         1.367943         0.158526         0.002668
 C         2.358096         1.365367        -0.094270
 C         3.382423         0.392235         0.595938
 O         4.500806         0.848128         1.298952
 C         3.690927        -0.577713        -0.666900
 C         2.282766        -1.090595        -0.463120
 O         1.821387        -2.338959        -0.914300
 C         2.205565        -0.618735         0.956450
 H        -0.411048         1.364559         0.319531
 H        -0.238098         0.364124        -1.128528
 H        -0.721595        -0.429163         0.534865
 H         2.674738         1.762991        -1.081105
 H         1.885630         2.220177         0.563160
 H         4.135553         0.924786         2.234599
 H         4.157951        -0.060959        -1.522123
 H         4.401308        -1.390478        -0.311888
 H         1.712337        -2.311845        -1.881195
 H         2.054635        -1.175779         1.887866
