19
Iteration:   733
 C        -0.109837         0.193244         0.056625
 C         1.389844         0.071214         0.051109
 C         2.306271         1.312880        -0.066302
 C         3.444925         0.306618         0.416809
 O         4.347696         0.889160         1.352496
 C         3.764062        -0.531899        -0.774622
 C         2.334554        -0.997394        -0.469177
 O         1.647131        -2.058781        -1.011394
 C         2.360737        -0.620882         0.973765
 H        -0.261557         0.985659         0.807393
 H        -0.356337         0.241875        -1.005195
 H        -0.700727        -0.685874         0.276359
 H         2.344378         1.955636        -0.954990
 H         2.142730         1.992312         0.851963
 H         4.650855         0.287260         1.997228
 H         4.072868         0.018332        -1.645665
 H         4.436494        -1.357651        -0.380339
 H         1.948133        -2.885466        -0.578481
 H         2.225037        -1.202744         2.019737
