19
Iteration:  1442
 C        -0.068706         0.312588        -0.024656
 C         1.446811         0.179439        -0.010918
 C         2.431296         1.289727        -0.123224
 C         3.484074         0.319236         0.513404
 O         4.375959         0.942439         1.383931
 C         3.707682        -0.598170        -0.719067
 C         2.264647        -1.122548        -0.453577
 O         1.659031        -2.257310        -0.891347
 C         2.269402        -0.650056         1.027229
 H        -0.424925         1.120165         0.546107
 H        -0.412206         0.839967        -0.878776
 H        -0.596415        -0.555600         0.032639
 H         2.721199         1.478553        -1.236225
 H         2.147586         2.121793         0.502845
 H         3.855011         1.651575         1.792095
 H         3.958628        -0.154217        -1.666106
 H         4.418188        -1.389566        -0.481003
 H         1.605508        -2.267109        -1.860019
 H         2.059734        -1.148138         1.981897
