19
Iteration:  1967
 C        -0.173084         0.331139        -0.184973
 C         1.387995         0.161233        -0.083488
 C         2.404794         1.334521        -0.131756
 C         3.392696         0.356087         0.561471
 O         4.602729         0.835776         1.278163
 C         3.657822        -0.736670        -0.533761
 C         2.215562        -1.099327        -0.324945
 O         1.889099        -2.193230        -1.042779
 C         2.134939        -0.527361         1.101560
 H        -0.571805         1.213581         0.350122
 H        -0.662878         0.309260        -1.203016
 H        -0.773423        -0.343724         0.442726
 H         2.667877         1.832930        -1.004697
 H         2.084105         2.135581         0.580232
 H         4.404707         1.555201         1.970383
 H         4.016976        -0.410782        -1.509890
 H         4.249585        -1.667718        -0.332629
 H         0.965440        -2.379131        -0.859124
 H         1.830745        -0.937216         2.059320
