19
Iteration:  2213charge 0 multiplicity 1
 C        -0.102503         0.309162        -0.347623
 C         1.387256         0.179903        -0.106515
 C         2.334314         1.361861        -0.043520
 C         3.380490         0.433945         0.520122
 O         4.481532         0.691908         1.368415
 C         3.679716        -0.619765        -0.652652
 C         2.318514        -1.065384        -0.344984
 O         1.746387        -2.246670        -0.781996
 C         2.171027        -0.463879         1.064920
 H        -0.588934         1.006242         0.526725
 H        -0.435022         0.755024        -1.281324
 H        -0.586931        -0.677190        -0.335460
 H         2.373405         1.911823        -0.949740
 H         2.109372         1.919186         0.824006
 H         5.070506         0.970686         0.679550
 H         3.899093        -0.103371        -1.611964
 H         4.459837        -1.279432        -0.306413
 H         2.382266        -2.954126        -0.863445
 H         1.952218        -0.877038         1.985344
