19
Iteration:   326
 C        -0.184244         0.031938        -0.156111
 C         1.355085         0.224291        -0.003227
 C         2.379103         1.434376        -0.014745
 C         3.425092         0.384416         0.541323
 O         4.614531         0.768111         1.234472
 C         3.648442        -0.592357        -0.631103
 C         2.237989        -1.018921        -0.303993
 O         1.663650        -2.053883        -0.999264
 C         2.243625        -0.630556         1.128018
 H        -0.715882         0.835303         0.445977
 H        -0.485228         0.033310        -1.274545
 H        -0.618047        -0.901909         0.273176
 H         2.549392         1.953898        -0.983448
 H         1.973823         2.090013         0.838914
 H         5.197880         1.333550         0.716456
 H         3.939041        -0.115340        -1.681167
 H         4.422526        -1.372174        -0.402017
 H         2.335151        -2.653180        -1.391677
 H         1.998663        -1.194949         2.095016
