19
Iteration:  2784
 C        -0.115704         0.167020        -0.085099
 C         1.418219         0.205674        -0.074267
 C         2.403746         1.346582        -0.056479
 C         3.411284         0.352996         0.554712
 O         4.448962         0.949325         1.284643
 C         3.691538        -0.729763        -0.546894
 C         2.270192        -1.070322        -0.427019
 O         1.755615        -2.195831        -0.968081
 C         2.129773        -0.531534         1.102399
 H        -0.523851         0.932707         0.487155
 H        -0.550857         0.489012        -1.032259
 H        -0.559894        -0.814753         0.182024
 H         2.567544         1.868579        -1.024639
 H         2.307996         2.181724         0.586874
 H         5.324910         0.939982         0.735854
 H         4.345793        -0.391728        -1.307597
 H         4.324996        -1.587949        -0.200706
 H         1.447041        -2.099502        -1.878884
 H         1.843242        -1.030191         1.903420
