19
Iteration:  2746
 C        -0.001540         0.118407        -0.273876
 C         1.474064         0.126849         0.042501
 C         2.370438         1.406214        -0.047653
 C         3.382907         0.399455         0.553469
 O         4.467344         0.982334         1.286696
 C         3.707279        -0.635200        -0.628326
 C         2.269534        -1.041550        -0.403674
 O         1.565571        -2.210593        -0.888019
 C         2.288781        -0.626457         1.060065
 H        -0.333541         0.973882         0.373286
 H        -0.238593         0.151872        -1.360335
 H        -0.483231        -0.749389         0.155627
 H         2.631644         1.775643        -1.047202
 H         1.956237         2.059769         0.740628
 H         5.031150         0.222472         1.494078
 H         3.916534        -0.153064        -1.594213
 H         4.305145        -1.371073        -0.152871
 H         1.180304        -1.747919        -1.633298
 H         1.920834        -1.048147         2.136414
