19
Iteration:  1238charge 0 multiplicity 1
 C        -0.199210         0.024986        -0.067230
 C         1.410236         0.219497        -0.106318
 C         2.402485         1.454301        -0.064546
 C         3.438219         0.460365         0.491577
 O         4.542292         0.718112         1.315817
 C         3.749696        -0.599139        -0.615764
 C         2.251560        -1.087409        -0.409439
 O         1.670593        -2.229824        -0.899023
 C         2.232997        -0.455423         1.017484
 H        -0.618341         0.416433         0.859885
 H        -0.758817         0.427923        -0.850774
 H        -0.451603        -1.077815        -0.101517
 H         2.582347         2.078806        -1.028857
 H         1.952166         2.024567         0.836688
 H         4.769268         1.653305         1.281543
 H         4.133385        -0.099552        -1.494390
 H         4.312967        -1.372556        -0.117576
 H         1.597581        -2.056460        -1.856012
 H         1.959307        -0.592163         1.971699
