19
Iteration:  1591
 C        -0.059491         0.336517        -0.094554
 C         1.388766         0.201455        -0.090009
 C         2.442915         1.383749        -0.038488
 C         3.416986         0.421769         0.580909
 O         4.501085         0.824061         1.267033
 C         3.660805        -0.646284        -0.579687
 C         2.189586        -1.094674        -0.431312
 O         1.782105        -2.359886        -0.947449
 C         2.147290        -0.545890         1.004039
 H        -0.296706         0.921938         0.738966
 H        -0.488377         0.624765        -1.041566
 H        -0.717227        -0.539038         0.141960
 H         2.619406         1.903973        -0.954707
 H         2.163055         2.231561         0.718244
 H         4.246872         1.478202         1.888183
 H         3.832503        -0.419598        -1.650749
 H         4.233735        -1.473178        -0.151081
 H         2.324915        -2.421820        -1.772541
 H         1.625320        -0.991835         1.874229
