19
Iteration:   800charge 0 multiplicity 1
 C        -0.114973         0.116433        -0.132607
 C         1.368827         0.171342         0.128671
 C         2.263846         1.378829         0.041166
 C         3.370939         0.424857         0.533931
 O         4.495583         0.815343         1.174017
 C         3.669957        -0.499647        -0.610528
 C         2.301499        -1.080805        -0.324592
 O         1.713983        -2.070339        -1.099897
 C         2.289476        -0.641208         1.085610
 H        -0.698672         0.491072         0.757266
 H        -0.319537         0.701400        -1.050446
 H        -0.515722        -0.818074        -0.477723
 H         2.413404         1.919910        -0.934278
 H         2.100566         1.936314         0.968103
 H         5.311303         0.413542         0.728378
 H         3.949117        -0.170560        -1.603147
 H         4.326490        -1.235566        -0.077899
 H         2.218953        -2.915275        -1.079582
 H         2.370552        -1.239083         2.038695
