19
Iteration:  3695
 C        -0.074604         0.132527        -0.242183
 C         1.462519         0.181411        -0.117502
 C         2.423394         1.329479        -0.060164
 C         3.464802         0.340375         0.555334
 O         4.526069         0.846373         1.230985
 C         3.716071        -0.646984        -0.525069
 C         2.290383        -1.079930        -0.350500
 O         1.572123        -2.094025        -0.955759
 C         2.194237        -0.518120         1.087200
 H        -0.630825         0.699376         0.561976
 H        -0.471173         0.333796        -1.298836
 H        -0.333110        -0.976330        -0.183132
 H         2.422601         1.996886        -0.991782
 H         2.248853         1.920389         0.800346
 H         4.204055         1.618233         1.624511
 H         3.976357        -0.191621        -1.479754
 H         4.392072        -1.461677        -0.278846
 H         1.451423        -2.757091        -0.268187
 H         1.764754        -0.653330         2.053844
