19
Iteration:  1509charge 0 multiplicity 1
 C        -0.129956         0.124117        -0.317341
 C         1.351922         0.245959        -0.003823
 C         2.431975         1.411292         0.075777
 C         3.447628         0.363804         0.512731
 O         4.613863         0.661687         1.156948
 C         3.619013        -0.492263        -0.624340
 C         2.230876        -1.054472        -0.286742
 O         1.820613        -2.179065        -0.918857
 C         2.104102        -0.549673         1.068967
 H        -0.758091         0.784614         0.249954
 H        -0.410289         0.363200        -1.312819
 H        -0.248250        -0.870113        -0.083015
 H         2.704579         2.017903        -0.879784
 H         2.135933         2.039073         0.916954
 H         4.219618         1.445801         1.634854
 H         3.864583        -0.114526        -1.593963
 H         4.454864        -1.155189        -0.385247
 H         0.963567        -2.409184        -0.467747
 H         1.780104        -0.985524         2.119611
