19
Iteration:   442
 C        -0.132893         0.099771        -0.126727
 C         1.406235         0.175293         0.002487
 C         2.287230         1.395683        -0.080657
 C         3.468315         0.375171         0.490148
 O         4.493085         0.709529         1.305216
 C         3.628881        -0.552767        -0.690320
 C         2.269709        -1.060610        -0.320737
 O         1.749395        -2.123836        -0.989159
 C         2.239936        -0.404533         1.111284
 H        -0.548396         0.440268         0.865754
 H        -0.556858         0.816393        -0.831539
 H        -0.525883        -0.876788        -0.286500
 H         2.398138         1.888514        -1.104713
 H         2.091158         2.077672         0.718818
 H         5.246306         0.267196         0.965575
 H         3.743792         0.002898        -1.703971
 H         4.502050        -1.291924        -0.650988
 H         2.215363        -2.933241        -0.722112
 H         1.855721        -0.663716         2.184573
