19
Iteration:  2434charge 0 multiplicity 1
 C        -0.105871         0.106159        -0.178356
 C         1.366590         0.205799        -0.091062
 C         2.366765         1.400715        -0.090762
 C         3.411087         0.435616         0.494270
 O         4.486059         0.871535         1.355550
 C         3.715661        -0.722588        -0.594291
 C         2.314881        -1.076673        -0.326988
 O         1.752615        -2.164274        -0.911695
 C         2.198775        -0.538349         1.019557
 H        -0.482191         0.441366         0.852104
 H        -0.485934         0.793527        -0.910447
 H        -0.660900        -0.896847        -0.308229
 H         2.498232         2.086491        -0.985330
 H         2.118582         2.157427         0.842981
 H         5.300442         0.718154         0.956551
 H         4.046008        -0.541381        -1.567642
 H         4.279398        -1.601732        -0.175556
 H         0.915759        -1.980413        -1.351467
 H         1.755138        -0.789296         1.877806
