19
Iteration:   570
 C        -0.162290         0.076802        -0.006020
 C         1.370343         0.217457        -0.085409
 C         2.290026         1.471940        -0.043805
 C         3.471932         0.472705         0.437322
 O         4.504891         0.699657         1.331485
 C         3.708363        -0.528287        -0.698671
 C         2.260642        -1.015180        -0.516369
 O         1.686477        -2.207239        -0.892111
 C         2.306587        -0.441073         0.988487
 H        -0.452643         0.746467         0.846250
 H        -0.715846         0.269119        -0.957286
 H        -0.537505        -0.963906         0.221189
 H         2.512876         2.112910        -0.924253
 H         1.946761         2.169728         0.782225
 H         4.559583        -0.136569         1.905088
 H         4.316689        -0.493166        -1.586962
 H         4.245452        -1.266157        -0.064369
 H         2.355379        -2.921473        -0.892125
 H         2.070220        -1.006346         1.840978
