19
Iteration:  2694
 C        -0.095571         0.263845        -0.225901
 C         1.416786         0.192945        -0.118452
 C         2.316142         1.428167         0.047004
 C         3.390949         0.394150         0.514164
 O         4.581703         0.776832         1.315770
 C         3.594968        -0.522122        -0.721833
 C         2.255044        -1.008898        -0.447521
 O         1.764735        -2.401586        -0.684793
 C         2.236968        -0.512900         0.942414
 H        -0.604765         0.959978         0.373114
 H        -0.247309         0.581107        -1.290390
 H        -0.391674        -0.745800        -0.159883
 H         2.436415         2.051406        -0.920521
 H         1.930480         2.113900         0.748894
 H         4.353302         0.404278         2.208431
 H         3.858585         0.008887        -1.655278
 H         4.406692        -1.191971        -0.404987
 H         1.602958        -2.370738        -1.624396
 H         2.047678        -1.212007         1.875087
