19
Iteration:  2761charge 0 multiplicity 1
 C        -0.110364         0.135449        -0.167131
 C         1.420724         0.144593        -0.066996
 C         2.390849         1.330258        -0.015071
 C         3.474941         0.397232         0.563445
 O         4.484592         1.015736         1.298525
 C         3.722998        -0.647200        -0.522804
 C         2.257746        -1.143957        -0.351511
 O         1.579624        -2.177114        -0.981657
 C         2.261409        -0.585264         1.046632
 H        -0.615707         0.974331         0.211069
 H        -0.307617         0.278043        -1.244838
 H        -0.491311        -0.848942         0.147325
 H         2.617943         1.947456        -0.936826
 H         2.159188         2.175439         0.582381
 H         5.317062         0.630896         1.102780
 H         4.145133        -0.379010        -1.497151
 H         4.472458        -1.436707        -0.259727
 H         1.130017        -2.027726        -1.852344
 H         1.834259        -0.871856         1.964779
