19
Iteration:  2326
 C        -0.102348         0.080277        -0.176219
 C         1.398230         0.191280        -0.135961
 C         2.426412         1.367073        -0.030783
 C         3.430088         0.412452         0.546574
 O         4.550238         0.769693         1.255601
 C         3.700190        -0.593883        -0.553483
 C         2.228427        -1.048912        -0.333986
 O         1.680759        -2.143974        -0.870850
 C         2.165544        -0.550346         1.027025
 H        -0.508264         1.018128         0.195848
 H        -0.500688         0.109795        -1.191727
 H        -0.342284        -0.884722         0.356298
 H         2.663084         1.802078        -1.007493
 H         2.022950         2.084631         0.558204
 H         4.310926         1.662090         1.475779
 H         4.043072        -0.124678        -1.471065
 H         4.455087        -1.360300        -0.161251
 H         1.616963        -2.072877        -1.861538
 H         1.899880        -1.115668         1.955603
