19
Iteration:  3384
 C        -0.014568         0.086881        -0.283202
 C         1.364662         0.174166         0.027759
 C         2.400710         1.391355        -0.038247
 C         3.432488         0.420274         0.538880
 O         4.608112         0.795523         1.192294
 C         3.644409        -0.636477        -0.539926
 C         2.244002        -1.061340        -0.250988
 O         1.633973        -2.215856        -1.004945
 C         2.181186        -0.445842         1.118319
 H        -0.565984         0.848887         0.248288
 H        -0.299622         0.099443        -1.326265
 H        -0.191676        -0.967223         0.119250
 H         2.855905         1.910544        -1.063679
 H         2.161151         2.277460         0.683552
 H         4.434518         1.333406         1.912764
 H         3.797863        -0.365707        -1.618306
 H         4.464057        -1.221763        -0.117624
 H         0.966278        -1.958608        -1.661275
 H         1.786615        -0.953889         2.071479
