19
Iteration:  3237
 C        -0.100018         0.116948        -0.265330
 C         1.450229         0.162932        -0.102332
 C         2.395324         1.303314        -0.007390
 C         3.450881         0.354172         0.529853
 O         4.581951         0.912694         1.231707
 C         3.725953        -0.703001        -0.540530
 C         2.258771        -1.055700        -0.332867
 O         1.610229        -2.171220        -0.903265
 C         2.217394        -0.500388         1.067780
 H        -0.660356         0.254911         0.711452
 H        -0.411275         0.851002        -1.027233
 H        -0.337984        -0.870942        -0.539787
 H         2.923192         1.997847        -0.896160
 H         2.040308         1.995567         0.723997
 H         4.209079         1.772959         1.673896
 H         3.843327        -0.446091        -1.604485
 H         4.326532        -1.566268        -0.179539
 H         0.797245        -1.944615        -1.377189
 H         1.735699        -0.622420         2.185834
