19
Iteration:  1694
 C         0.033822         0.181334        -0.333988
 C         1.419674         0.118051        -0.018595
 C         2.310828         1.313879         0.058823
 C         3.458105         0.384231         0.546287
 O         4.494889         0.916015         1.210075
 C         3.685948        -0.697902        -0.567850
 C         2.268925        -1.039112        -0.320870
 O         1.611471        -2.110505        -0.949137
 C         2.279704        -0.582431         1.102358
 H        -0.618083         0.995939         0.107156
 H        -0.214566         0.455337        -1.380271
 H        -0.459765        -0.745710        -0.089345
 H         2.562694         1.780279        -0.929822
 H         1.953785         1.996771         0.744891
 H         4.698868         0.386024         2.071648
 H         3.936113        -0.236210        -1.521279
 H         4.514816        -1.392967        -0.418540
 H         0.706463        -1.853873        -1.227249
 H         2.050914        -0.977387         1.991134
