19
Iteration:  1594
 C        -0.067960         0.331182        -0.077840
 C         1.399798         0.208088        -0.080954
 C         2.427035         1.418083        -0.037716
 C         3.404753         0.414363         0.550252
 O         4.531573         0.806426         1.289878
 C         3.645372        -0.642708        -0.569561
 C         2.188742        -1.085090        -0.419679
 O         1.803217        -2.399741        -0.968977
 C         2.136621        -0.531408         0.990966
 H        -0.426126         1.023918         0.804462
 H        -0.458408         0.661078        -1.100079
 H        -0.760956        -0.523355         0.128946
 H         2.660817         1.933065        -0.977072
 H         2.037653         2.196632         0.594404
 H         4.312359         1.553012         1.883000
 H         3.859219        -0.448943        -1.652278
 H         4.281027        -1.467288        -0.147210
 H         2.238709        -2.435373        -1.817956
 H         1.605688        -0.930915         1.999395
