19
Iteration:   399charge 0 multiplicity 1
 C        -0.107111         0.171676        -0.012567
 C         1.362615         0.186666        -0.114989
 C         2.349302         1.403136         0.001786
 C         3.439191         0.347850         0.501244
 O         4.487833         0.869429         1.433570
 C         3.757145        -0.526215        -0.750733
 C         2.232197        -0.962594        -0.506218
 O         1.621294        -2.316801        -0.912005
 C         2.275604        -0.557658         0.929927
 H        -0.506990         0.685708         0.881483
 H        -0.537936         0.748660        -0.835696
 H        -0.422769        -0.834376        -0.049229
 H         2.552453         1.956123        -0.939243
 H         2.073448         1.949986         0.839637
 H         5.355033         0.758793         1.076446
 H         4.038364        -0.010020        -1.661477
 H         4.357891        -1.465241        -0.708232
 H         2.052758        -2.851590        -0.252884
 H         1.889406        -1.101228         1.838015
