19
Iteration:  2409
 C        -0.089803         0.264252        -0.250719
 C         1.347049         0.210539         0.019855
 C         2.424237         1.333654        -0.054990
 C         3.391628         0.410916         0.550228
 O         4.501658         0.809896         1.334056
 C         3.664177        -0.539256        -0.606795
 C         2.247517        -1.082372        -0.426920
 O         1.761949        -2.363243        -0.872488
 C         2.232322        -0.507137         1.048585
 H        -0.569389         0.766686         0.647830
 H        -0.407667         0.590260        -1.325757
 H        -0.540607        -0.703287        -0.050198
 H         2.506666         1.982935        -0.937541
 H         1.896575         1.996542         0.744530
 H         5.086200         1.332674         0.775642
 H         3.993661        -0.035354        -1.590915
 H         4.425723        -1.244822        -0.358288
 H         1.086807        -2.393245        -1.542995
 H         2.015673        -1.103879         2.028726
