19
Iteration:  1297charge 0 multiplicity 1
 C        -0.113584         0.193930        -0.129687
 C         1.395435         0.174830        -0.000275
 C         2.387386         1.345990         0.003826
 C         3.434457         0.393564         0.506571
 O         4.499454         0.980599         1.288177
 C         3.733168        -0.607691        -0.697321
 C         2.302436        -1.128745        -0.413708
 O         1.601100        -2.281367        -0.886834
 C         2.267528        -0.605326         0.987341
 H        -0.397056         1.077302         0.482961
 H        -0.501143         0.530279        -1.122992
 H        -0.676245        -0.645566         0.265423
 H         2.554561         1.959560        -1.014891
 H         2.079645         2.162545         0.714336
 H         4.339716         0.785687         2.204163
 H         4.089925        -0.134305        -1.614814
 H         4.542117        -1.322687        -0.499745
 H         1.472572        -2.259153        -1.874995
 H         2.317272        -1.113089         2.075628
