19
Iteration:  3194
 C        -0.142142         0.340502        -0.345425
 C         1.403913         0.085463         0.024510
 C         2.359624         1.278964        -0.003248
 C         3.436085         0.390089         0.552451
 O         4.551680         0.837247         1.225282
 C         3.682384        -0.613618        -0.632366
 C         2.193732        -1.095975        -0.390332
 O         1.684048        -2.244698        -0.759909
 C         2.288410        -0.554802         1.028142
 H        -0.687640         0.935370         0.463190
 H        -0.170932         1.078357        -1.110596
 H        -0.796498        -0.446423        -0.554375
 H         2.440426         1.756141        -1.041557
 H         2.078075         2.050744         0.655941
 H         4.363478         1.597540         1.892898
 H         4.141293        -0.160945        -1.529056
 H         4.502654        -1.301629        -0.285521
 H         1.854538        -2.422219        -1.718836
 H         2.152644        -1.116409         2.100876
