19
Iteration:  2479
 C        -0.132876         0.209981        -0.124982
 C         1.411849         0.176559        -0.025464
 C         2.417130         1.301170        -0.124073
 C         3.532251         0.389363         0.498050
 O         4.483735         1.042844         1.348535
 C         3.680193        -0.644562        -0.617433
 C         2.279595        -1.110706        -0.390351
 O         1.664513        -2.205047        -0.940497
 C         2.210047        -0.665898         1.058469
 H        -0.655605         0.459090         0.837824
 H        -0.455382         0.825284        -0.929643
 H        -0.485844        -0.854461        -0.389962
 H         2.715312         1.701184        -1.156676
 H         2.060221         2.245453         0.489498
 H         4.609223         0.548463         2.116262
 H         3.858783        -0.247445        -1.565335
 H         4.520082        -1.354741        -0.360564
 H         1.199888        -1.987911        -1.751024
 H         1.800527        -1.175372         2.010265
