19
Iteration:  1126charge 0 multiplicity 1
 C        -0.219988        -0.070874        -0.072597
 C         1.324755         0.245054        -0.142103
 C         2.437365         1.493997         0.012728
 C         3.466902         0.443267         0.522702
 O         4.585724         0.770896         1.411642
 C         3.700205        -0.602978        -0.660024
 C         2.219805        -1.000632        -0.455398
 O         1.694063        -2.232822        -0.853342
 C         2.188358        -0.466623         0.918836
 H        -0.593885         0.575407         0.712437
 H        -0.673254         0.111445        -1.042674
 H        -0.452611        -1.055197         0.196781
 H         2.592496         2.006000        -1.112019
 H         2.186266         2.279571         0.818353
 H         5.374188         0.952101         0.787388
 H         4.125364        -0.197381        -1.593547
 H         4.434078        -1.342998        -0.230196
 H         1.613560        -2.139763        -1.811562
 H         1.818927        -0.863351         1.978784
