19
Iteration:  3212charge 0 multiplicity 1
 C        -0.025116         0.288184        -0.287547
 C         1.451535         0.214721         0.020036
 C         2.362217         1.383132        -0.031762
 C         3.415485         0.346023         0.556157
 O         4.534991         0.914385         1.191455
 C         3.737917        -0.610287        -0.578261
 C         2.291960        -1.112244        -0.333254
 O         1.590828        -2.299626        -0.833229
 C         2.203135        -0.662395         1.073853
 H        -0.660442         0.483641         0.546110
 H        -0.147976         1.045444        -1.185395
 H        -0.280770        -0.759864        -0.659999
 H         2.514710         1.946909        -1.060906
 H         2.153286         2.195938         0.737408
 H         4.196517         1.765920         1.659314
 H         3.915307        -0.328861        -1.621619
 H         4.202478        -1.513118        -0.205391
 H         1.216392        -2.144170        -1.748264
 H         1.949672        -1.270613         1.902168
