19
Iteration:  1364
 C        -0.118418         0.180724        -0.297126
 C         1.364038         0.160225         0.093545
 C         2.351964         1.419295         0.013135
 C         3.426650         0.444751         0.509728
 O         4.621631         0.820992         1.313790
 C         3.554410        -0.473422        -0.671501
 C         2.205212        -1.083872        -0.389028
 O         1.786673        -2.313764        -0.827564
 C         2.193528        -0.580398         1.056609
 H        -0.727071         0.745736         0.406412
 H        -0.255000         0.615930        -1.312067
 H        -0.567592        -0.765361        -0.293638
 H         2.739763         1.899592        -1.012072
 H         2.106811         2.304420         0.590226
 H         5.287784         0.128767         0.965571
 H         3.824682        -0.095055        -1.643363
 H         4.295544        -1.249663        -0.492115
 H         1.401049        -2.203726        -1.699976
 H         1.947641        -0.876074         2.060274
