19
Iteration:  3351
 C        -0.113271         0.202404        -0.299729
 C         1.334626         0.209871        -0.002692
 C         2.297739         1.322699        -0.010551
 C         3.442394         0.356985         0.553334
 O         4.577313         0.777081         1.233573
 C         3.718299        -0.595312        -0.633329
 C         2.254497        -1.066438        -0.406832
 O         1.671846        -2.186907        -0.808367
 C         2.267103        -0.544768         1.082521
 H        -0.526320         1.155101         0.009067
 H        -0.421887         0.010035        -1.306995
 H        -0.576517        -0.455423         0.491268
 H         2.786438         1.897056        -0.941331
 H         2.168389         2.176896         0.776613
 H         4.331454         1.611431         1.705886
 H         4.054686        -0.186900        -1.629570
 H         4.419840        -1.374627        -0.300732
 H         1.705942        -2.252067        -1.764064
 H         1.968524        -1.226509         1.886609
