19
Iteration:  4177
 C        -0.045758         0.267542        -0.295783
 C         1.424299         0.149276        -0.063906
 C         2.351186         1.399714        -0.130048
 C         3.395542         0.383932         0.522475
 O         4.504051         0.942185         1.352134
 C         3.683432        -0.706070        -0.593520
 C         2.262297        -1.112980        -0.315993
 O         1.588285        -2.255117        -0.901693
 C         2.265942        -0.481626         1.091870
 H        -0.702926         0.705797         0.519080
 H        -0.303491         0.941490        -1.173766
 H        -0.486521        -0.673998        -0.550101
 H         2.618737         1.837242        -1.128511
 H         2.152478         2.240043         0.614533
 H         4.988835         0.137793         1.692409
 H         3.979924        -0.226510        -1.517261
 H         4.390663        -1.424991        -0.250468
 H         2.261054        -2.972757        -0.967935
 H         1.885831        -0.918103         2.094063
