19
Iteration:  4096charge 0 multiplicity 1
 C        -0.128088         0.205876        -0.274358
 C         1.353797         0.188979        -0.166508
 C         2.333347         1.389447        -0.118464
 C         3.434179         0.360120         0.514961
 O         4.550584         0.764244         1.418593
 C         3.667476        -0.637317        -0.611192
 C         2.266560        -1.098495        -0.288981
 O         1.769855        -2.191118        -0.913767
 C         2.186146        -0.374200         1.051928
 H        -0.460443         1.063576         0.295412
 H        -0.465605         0.152295        -1.313341
 H        -0.527831        -0.733511         0.301241
 H         2.835789         1.856193        -1.017076
 H         1.692979         2.130425         0.496411
 H         5.270108         0.214546         1.077976
 H         3.830695        -0.100143        -1.514568
 H         4.500937        -1.227014        -0.265770
 H         1.131981        -2.660665        -0.320359
 H         2.018727        -0.845206         2.012327
