19
Iteration:  3332charge 0 multiplicity 1
 C        -0.053075         0.316203        -0.186532
 C         1.385929         0.136284        -0.048027
 C         2.364800         1.426224         0.022545
 C         3.452867         0.366639         0.519198
 O         4.456108         0.803927         1.245069
 C         3.739177        -0.570452        -0.626220
 C         2.277767        -1.041262        -0.482221
 O         1.650995        -2.302703        -0.734575
 C         2.241112        -0.650024         0.936300
 H        -0.300012         1.340085        -0.094951
 H        -0.213018         0.168734        -1.309784
 H        -0.610697        -0.318229         0.529647
 H         2.416372         2.062494        -0.816612
 H         1.995293         2.190015         0.832019
 H         4.184577         1.480735         1.835496
 H         3.953863        -0.136522        -1.657042
 H         4.454784        -1.357965        -0.320721
 H         1.736148        -2.586924        -1.643299
 H         2.079249        -1.245311         1.977960
