19
Iteration:  4027
 C        -0.137848         0.356844        -0.250382
 C         1.422153         0.112125        -0.030638
 C         2.381256         1.325762        -0.096791
 C         3.442792         0.384279         0.550870
 O         4.445249         0.874458         1.372136
 C         3.763675        -0.674903        -0.640671
 C         2.273991        -1.161421        -0.386178
 O         1.681003        -2.275264        -0.868800
 C         2.281331        -0.551808         1.065952
 H        -0.674899         1.056103         0.435861
 H        -0.162393         0.779121        -1.272167
 H        -0.828749        -0.467403        -0.337663
 H         2.667985         1.751935        -1.124814
 H         2.129652         2.077520         0.642711
 H         4.586561         1.867269         1.128060
 H         4.065948        -0.141694        -1.560448
 H         4.474634        -1.492043        -0.298339
 H         0.761379        -2.290759        -1.210014
 H         2.148776        -0.801405         2.124188
