19
Iteration:  4698charge 0 multiplicity 1
 C        -0.067164         0.343653        -0.153571
 C         1.382287         0.111171        -0.021346
 C         2.281727         1.349147         0.110305
 C         3.389340         0.317460         0.542936
 O         4.513123         0.980268         1.217944
 C         3.724405        -0.624741        -0.606969
 C         2.289352        -1.108257        -0.479380
 O         1.745011        -2.293356        -0.924187
 C         2.251284        -0.636269         0.987823
 H        -0.408627         1.336720         0.154406
 H        -0.324014         0.351424        -1.232485
 H        -0.823776        -0.313876         0.213441
 H         2.688526         2.112306        -0.590178
 H         1.839805         1.857841         0.933520
 H         4.304148         1.150816         2.098537
 H         4.195386        -0.279387        -1.671550
 H         4.335846        -1.493473        -0.195390
 H         1.351449        -2.178933        -1.820781
 H         2.015398        -1.135865         1.967002
