19
Iteration:  4463charge 0 multiplicity 1
 C        -0.049304         0.062352        -0.162962
 C         1.411971         0.224208        -0.005739
 C         2.365035         1.432286        -0.123781
 C         3.428707         0.484352         0.507891
 O         4.513015         0.861413         1.373761
 C         3.802337        -0.629245        -0.682292
 C         2.285906        -1.078936        -0.368845
 O         1.505439        -2.306344        -0.966055
 C         2.272202        -0.472552         1.098205
 H        -0.383583         1.013539         0.340495
 H        -0.289766         0.071422        -1.222185
 H        -0.352649        -0.848319         0.291817
 H         2.685377         1.777175        -1.090644
 H         2.061979         2.313634         0.446135
 H         4.135462         0.636334         2.331741
 H         4.160790        -0.117146        -1.687720
 H         4.342213        -1.457531        -0.230802
 H         1.330134        -2.101973        -1.892103
 H         2.123506        -1.007685         2.159072
