19
Iteration:   906charge 0 multiplicity 1
 C        -0.199977         0.253995         0.049997
 C         1.359122         0.135973         0.127972
 C         2.326544         1.247917        -0.036589
 C         3.386326         0.369609         0.521915
 O         4.539261         0.929515         1.168768
 C         3.664261        -0.549285        -0.608170
 C         2.274060        -1.060884        -0.395208
 O         1.825690        -2.109359        -1.205242
 C         2.156188        -0.660622         1.089819
 H        -0.689903         0.944974         0.736503
 H        -0.564727         0.577235        -0.952625
 H        -0.502114        -0.764849         0.280134
 H         2.559301         1.632274        -1.007127
 H         2.352145         2.155868         0.700719
 H         4.956726         0.226090         1.767496
 H         4.028095         0.112009        -1.438409
 H         4.392131        -1.369805        -0.509678
 H         2.368124        -2.919235        -1.035887
 H         1.971401        -1.117787         2.149085
