19
Iteration:  4770
 C        -0.051500         0.044163        -0.169509
 C         1.358928         0.256785         0.010851
 C         2.309969         1.499599        -0.023004
 C         3.411928         0.458211         0.558230
 O         4.558124         0.720775         1.398406
 C         3.709947        -0.588879        -0.656120
 C         2.302438        -1.060328        -0.475382
 O         1.643796        -2.256592        -0.852531
 C         2.245114        -0.563160         0.884098
 H        -0.788793         0.152484         0.635235
 H        -0.353007         0.859527        -0.864468
 H        -0.364160        -0.960462        -0.695718
 H         2.392415         2.193315        -0.832710
 H         2.092065         2.230389         0.851966
 H         4.651993         1.621577         1.447882
 H         4.000717        -0.246266        -1.605037
 H         4.516887        -1.217498        -0.228472
 H         1.595942        -2.316846        -1.839569
 H         1.898250        -0.879226         1.972046
