19
Iteration:   931charge 0 multiplicity 1
 C        -0.038778         0.158384         0.025033
 C         1.462007         0.092321        -0.010753
 C         2.341298         1.357281         0.060978
 C         3.375129         0.413443         0.580532
 O         4.452189         1.074460         1.256868
 C         3.638928        -0.708283        -0.676024
 C         2.259253        -1.114900        -0.396271
 O         1.625683        -2.123159        -1.192850
 C         2.293736        -0.646114         1.069371
 H        -0.403768         0.908199         0.812618
 H        -0.426981         0.667522        -0.881991
 H        -0.473587        -0.819856         0.146357
 H         2.732298         1.862612        -0.882799
 H         1.987174         2.078919         0.936579
 H         5.155142         0.387735         1.537591
 H         3.995775        -0.275390        -1.605017
 H         4.248153        -1.547166        -0.241109
 H         2.357276        -2.668151        -1.481961
 H         1.906644        -0.999997         1.909102
