19
Iteration:  3473
 C        -0.077710         0.446621        -0.135842
 C         1.367012         0.165874        -0.111130
 C         2.323698         1.359380        -0.103512
 C         3.339611         0.377565         0.553220
 O         4.558118         0.768521         1.284214
 C         3.702255        -0.609877        -0.642406
 C         2.214912        -1.140773        -0.356254
 O         1.925349        -2.385688        -0.882717
 C         2.152896        -0.513240         1.043230
 H        -0.353190         1.108590         0.659289
 H        -0.379236         1.081298        -0.962128
 H        -0.738560        -0.458539         0.046048
 H         2.515804         1.981231        -1.042749
 H         1.877657         1.983067         0.629544
 H         4.244514         1.507623         1.740190
 H         3.811481        -0.251945        -1.678013
 H         4.403638        -1.430906        -0.476643
 H         1.013862        -2.260626        -1.161876
 H         1.924861        -0.998118         1.971478
