19
Iteration:  2262
 C        -0.091541         0.283347        -0.160848
 C         1.402104         0.187493        -0.073845
 C         2.391345         1.296586        -0.059332
 C         3.465937         0.287931         0.533246
 O         4.377626         0.997540         1.302902
 C         3.760499        -0.675763        -0.650948
 C         2.298117        -1.089496        -0.389581
 O         1.714399        -2.231248        -0.934726
 C         2.211936        -0.551555         1.015345
 H        -0.463180         0.770858         0.734116
 H        -0.323796         0.957831        -1.088554
 H        -0.735831        -0.619958        -0.431994
 H         2.830758         1.583620        -1.075193
 H         1.957977         2.166507         0.547811
 H         4.751781         0.409006         2.068365
 H         3.988041        -0.045290        -1.541240
 H         4.564947        -1.481791        -0.389085
 H         1.073126        -2.602280        -0.271285
 H         1.936733        -0.828648         2.097543
