19
Iteration:  2074
 C        -0.124562         0.316103        -0.221571
 C         1.333928         0.203287        -0.119211
 C         2.346201         1.438133        -0.081206
 C         3.377654         0.387760         0.522680
 O         4.564400         0.619017         1.284836
 C         3.698455        -0.594134        -0.625847
 C         2.266890        -1.026607        -0.363696
 O         1.779915        -2.341851        -0.798527
 C         2.156064        -0.407049         1.024877
 H        -0.497927         0.821187         0.621376
 H        -0.194354         0.961057        -1.135837
 H        -0.641965        -0.667023        -0.468336
 H         2.717145         1.926785        -1.047975
 H         1.783088         2.076867         0.623553
 H         4.266829         1.097992         2.151204
 H         3.864178        -0.166612        -1.590173
 H         4.405725        -1.380703        -0.242347
 H         2.549696        -2.771572        -1.183820
 H         1.896428        -0.722865         1.977267
