19
Iteration:  4413charge 0 multiplicity 1
 C        -0.095272         0.350134        -0.287983
 C         1.349744         0.186889         0.074064
 C         2.345406         1.366208         0.078228
 C         3.445903         0.338604         0.540048
 O         4.519201         1.006468         1.226220
 C         3.709786        -0.624062        -0.545986
 C         2.271937        -1.122797        -0.406673
 O         1.725777        -2.387222        -0.901258
 C         2.180954        -0.583892         0.996081
 H        -0.685840         0.886128         0.447871
 H        -0.130785         0.761462        -1.317739
 H        -0.414633        -0.778000        -0.424532
 H         2.553142         1.969427        -0.888421
 H         2.037020         2.033254         0.905397
 H         5.325736         0.547047         1.019991
 H         3.947602        -0.210816        -1.492901
 H         4.417026        -1.384395        -0.081626
 H         0.989997        -2.358008        -1.550197
 H         1.853395        -0.878110         1.933277
