19
Iteration:  4819charge 0 multiplicity 1
 C        -0.052693         0.492723        -0.103651
 C         1.347765         0.066383         0.051847
 C         2.293493         1.301512         0.023472
 C         3.427854         0.395526         0.542957
 O         4.414259         0.908192         1.335313
 C         3.751187        -0.580183        -0.673814
 C         2.269570        -1.092595        -0.466543
 O         1.852382        -2.393367        -0.988526
 C         2.210004        -0.691594         1.014604
 H        -0.408446         0.984707         0.824704
 H        -0.294010         1.199997        -0.905637
 H        -0.668398        -0.350818        -0.093606
 H         2.522514         1.680033        -1.039319
 H         2.016838         2.214831         0.541495
 H         4.007866         1.809269         1.684760
 H         3.956062        -0.222100        -1.694317
 H         4.414319        -1.371604        -0.407506
 H         1.595070        -2.205415        -1.900988
 H         1.945560        -1.263274         1.897069
