19
Iteration:  3002
 C        -0.103295         0.263423        -0.179218
 C         1.396702         0.186856        -0.155837
 C         2.377753         1.420679        -0.088792
 C         3.451347         0.341790         0.489905
 O         4.481008         0.698684         1.372681
 C         3.617105        -0.518965        -0.795306
 C         2.275395        -1.027049        -0.415626
 O         1.777478        -2.304664        -0.678183
 C         2.264764        -0.491511         1.033428
 H        -0.471449         0.738802         0.697341
 H        -0.395802         0.686997        -1.196364
 H        -0.674983        -0.720011        -0.157952
 H         2.616525         2.108571        -0.996165
 H         2.131007         1.999063         0.747464
 H         4.109748         0.916971         2.186074
 H         3.583258         0.112493        -1.693517
 H         4.218431        -1.431428        -0.679590
 H         1.947821        -2.559978        -1.613547
 H         1.763902        -0.835934         2.055381
