19
Iteration:   646charge 0 multiplicity 1
 C        -0.081612         0.218440        -0.216158
 C         1.389654         0.114276         0.154039
 C         2.268785         1.307775         0.141224
 C         3.443225         0.524794         0.491222
 O         4.520273         0.977487         1.185527
 C         3.649806        -0.587103        -0.573193
 C         2.226128        -1.103712        -0.410236
 O         1.640589        -2.171618        -1.125582
 C         2.341180        -0.697991         1.102332
 H        -0.689858         0.723677         0.619479
 H        -0.158079         0.829214        -1.179907
 H        -0.620982        -0.752123        -0.421670
 H         2.392023         1.913866        -0.784816
 H         2.107106         2.133879         0.921759
 H         5.267819         0.443354         0.939090
 H         4.116732        -0.465128        -1.585494
 H         4.434954        -1.276918        -0.007755
 H         1.810341        -2.993720        -0.669122
 H         2.225685        -1.326501         2.049135
