19
Iteration:   324charge 0 multiplicity 1
 C        -0.172781         0.031781        -0.157254
 C         1.354543         0.242942        -0.002593
 C         2.391379         1.442371        -0.007585
 C         3.415716         0.384139         0.542332
 O         4.606741         0.762791         1.237050
 C         3.640689        -0.591241        -0.644107
 C         2.259164        -1.029717        -0.324830
 O         1.660296        -2.061484        -0.990363
 C         2.224802        -0.629703         1.128159
 H        -0.714539         0.744771         0.492151
 H        -0.482583        -0.022677        -1.229262
 H        -0.537539        -0.874505         0.289276
 H         2.561797         2.007128        -0.924718
 H         1.987135         2.050359         0.788804
 H         5.203241         1.357627         0.686674
 H         3.891258        -0.137361        -1.585850
 H         4.396590        -1.374373        -0.404688
 H         2.356923        -2.650551        -1.396841
 H         2.011588        -1.093971         2.049199
