19
Iteration:   632
 C        -0.028314         0.279920        -0.162207
 C         1.396134         0.076418         0.174423
 C         2.281631         1.309205         0.044867
 C         3.443345         0.296111         0.563346
 O         4.493271         1.095173         1.236243
 C         3.693003        -0.577505        -0.676083
 C         2.268188        -1.122358        -0.349766
 O         1.615269        -2.167311        -1.153198
 C         2.283586        -0.689566         1.103617
 H        -0.640690         0.756862         0.563706
 H        -0.119825         0.923801        -1.044613
 H        -0.391959        -0.773406        -0.370885
 H         2.318162         1.621077        -0.969933
 H         1.912742         2.064805         0.824088
 H         5.413877         0.694286         1.073129
 H         3.895951         0.005649        -1.573531
 H         4.411083        -1.449396        -0.447797
 H         1.561955        -2.994081        -0.622994
 H         2.158528        -1.122526         1.976011
