19
Iteration:  2500charge 0 multiplicity 1
 C        -0.072859         0.280080        -0.180469
 C         1.397311         0.121364         0.001949
 C         2.356712         1.327211         0.004773
 C         3.413825         0.322121         0.564808
 O         4.419450         0.961666         1.238835
 C         3.712524        -0.645954        -0.718326
 C         2.259859        -1.050027        -0.432499
 O         1.731117        -2.254931        -0.856053
 C         2.249488        -0.558690         1.019722
 H        -0.319079         0.889927         0.717837
 H        -0.223549         0.760162        -1.074683
 H        -0.732415        -0.630683        -0.093874
 H         2.528513         1.963556        -0.885200
 H         2.031813         1.994906         0.914580
 H         4.400617         0.588548         2.203205
 H         4.022417        -0.230780        -1.630925
 H         4.438594        -1.456809        -0.429996
 H         1.874073        -2.218316        -1.827304
 H         2.078544        -1.091216         1.977792
