19
Iteration:  1785
 C        -0.085460         0.313462        -0.096954
 C         1.389856         0.212691        -0.086147
 C         2.418710         1.354734        -0.123447
 C         3.459569         0.358519         0.437380
 O         4.399239         0.755251         1.486198
 C         3.784236        -0.551206        -0.708612
 C         2.244384        -1.094533        -0.463529
 O         1.614021        -2.332647        -0.744789
 C         2.287768        -0.512279         0.897865
 H        -0.385340         0.884656         0.883820
 H        -0.372907         1.014289        -0.888454
 H        -0.623495        -0.684115        -0.068736
 H         2.680252         1.770457        -1.104874
 H         2.227162         2.224514         0.442565
 H         3.955118         1.475813         1.989481
 H         4.027358        -0.103683        -1.676236
 H         4.474068        -1.372148        -0.737508
 H         1.856078        -2.406537        -1.706570
 H         2.269636        -1.123269         1.852298
