19
Iteration:  2358charge 0 multiplicity 1
 C        -0.057548         0.237022        -0.264120
 C         1.347832         0.166998        -0.037716
 C         2.412102         1.401932         0.087523
 C         3.478672         0.383680         0.437399
 O         4.475420         0.810971         1.395161
 C         3.703124        -0.531541        -0.725230
 C         2.211068        -1.105869        -0.434277
 O         1.616655        -2.321310        -0.777505
 C         2.300275        -0.540510         0.971407
 H        -0.447531         1.208422         0.101494
 H        -0.125126         0.024060        -1.258519
 H        -0.774391        -0.484597         0.226817
 H         2.381513         1.990200        -0.823295
 H         1.997292         1.951046         0.893100
 H         4.548553         1.850918         1.442355
 H         3.954167        -0.083997        -1.654043
 H         4.462257        -1.316211        -0.443778
 H         1.984754        -2.664240        -1.608210
 H         2.109128        -1.029769         1.948054
