19
Iteration:   567charge 0 multiplicity 1
 C        -0.170292         0.080343        -0.008468
 C         1.373247         0.227571        -0.109324
 C         2.289591         1.463433        -0.065281
 C         3.465303         0.464972         0.460474
 O         4.509465         0.682286         1.321566
 C         3.694251        -0.521495        -0.705208
 C         2.251420        -1.014884        -0.467457
 O         1.714601        -2.179624        -0.885725
 C         2.294620        -0.454853         0.977325
 H        -0.520197         0.766669         0.779573
 H        -0.767116         0.285679        -0.953671
 H        -0.453641        -1.025297         0.287912
 H         2.539430         2.052719        -0.946662
 H         1.910274         2.126519         0.856564
 H         4.569457        -0.087845         1.903797
 H         4.290560        -0.396567        -1.636038
 H         4.275013        -1.382525        -0.088093
 H         2.330315        -2.901438        -0.911976
 H         2.173438        -0.979374         1.857620
