19
Iteration:  3235
 C        -0.078241         0.119181        -0.261206
 C         1.433554         0.166828        -0.083278
 C         2.410789         1.305049         0.006163
 C         3.453463         0.370748         0.506797
 O         4.574349         0.923547         1.231539
 C         3.721253        -0.723608        -0.544033
 C         2.261169        -1.057855        -0.342795
 O         1.606092        -2.179056        -0.896781
 C         2.198820        -0.514330         1.068586
 H        -0.582529         0.251171         0.698748
 H        -0.361946         0.899060        -1.079476
 H        -0.354968        -0.904317        -0.582121
 H         2.943049         1.959935        -0.856995
 H         2.020846         2.023678         0.738033
 H         4.212329         1.732375         1.633658
 H         3.812228        -0.352520        -1.576125
 H         4.388201        -1.518209        -0.156585
 H         0.823952        -1.927348        -1.382167
 H         1.723855        -0.643613         2.121027
