19
Iteration:   162charge 0 multiplicity 1
 C        -0.148726         0.099975        -0.107177
 C         1.380175         0.165845         0.125660
 C         2.359915         1.307542         0.030366
 C         3.449842         0.402069         0.526103
 O         4.561643         0.776381         1.304796
 C         3.654187        -0.493111        -0.842922
 C         2.297161        -1.030968        -0.407234
 O         1.628145        -2.170303        -0.899897
 C         2.384840        -0.569707         0.993556
 H        -0.745146         0.730189         0.552560
 H        -0.321411         0.040120        -1.213208
 H        -0.481460        -0.904522         0.196568
 H         2.484845         1.642257        -1.023380
 H         2.111630         2.162886         0.794858
 H         3.955952         1.320632         1.885204
 H         3.881163         0.019358        -1.808324
 H         4.382646        -1.302938        -0.768267
 H         1.287636        -1.811159        -1.730766
 H         2.199768        -0.749040         1.939290
