19
Iteration:  3250charge 0 multiplicity 1
 C        -0.138201         0.106011        -0.242780
 C         1.390398         0.188876        -0.122478
 C         2.400138         1.393100        -0.123492
 C         3.475886         0.377475         0.608803
 O         4.585824         0.834348         1.246281
 C         3.685544        -0.701750        -0.546443
 C         2.225432        -1.099715        -0.323725
 O         1.675223        -2.180644        -0.931211
 C         2.267713        -0.469894         1.098411
 H        -0.619225         0.437263         0.738395
 H        -0.549636         0.678515        -1.004841
 H        -0.563850        -0.845638        -0.488368
 H         2.372207         1.962724        -1.201010
 H         2.103815         2.053255         0.691803
 H         4.400066         1.568797         1.770026
 H         4.273226        -0.297759        -1.422019
 H         4.282405        -1.521825        -0.076206
 H         0.834308        -1.788542        -1.260198
 H         1.931099        -0.811823         2.146025
