19
Iteration:   921
 C        -0.046923         0.183833         0.039977
 C         1.441550         0.152505         0.095568
 C         2.360749         1.341824         0.018235
 C         3.451134         0.350965         0.543585
 O         4.456381         1.029697         1.198393
 C         3.663804        -0.625864        -0.622715
 C         2.219159        -1.109122        -0.370717
 O         1.707433        -2.136879        -1.238338
 C         2.163432        -0.667899         1.103739
 H        -0.363291         0.852712         0.911747
 H        -0.371874         0.545580        -0.948319
 H        -0.604609        -0.735928         0.222372
 H         2.428555         1.882668        -1.002115
 H         1.970141         2.180877         0.702434
 H         5.022648         0.361519         1.679648
 H         3.842921        -0.350271        -1.668594
 H         4.497032        -1.328678        -0.386953
 H         2.456181        -2.699536        -1.389977
 H         1.773641        -1.069295         1.934684
