19
Iteration:  2681charge 0 multiplicity 1
 C        -0.047159         0.278840        -0.216890
 C         1.373576         0.229388        -0.020301
 C         2.292975         1.426214        -0.044884
 C         3.389150         0.412541         0.522639
 O         4.494800         0.722990         1.225884
 C         3.741073        -0.493880        -0.673284
 C         2.279621        -1.111320        -0.429455
 O         1.805302        -2.317471        -0.704378
 C         2.152770        -0.562636         0.952749
 H        -0.349804         0.823633         0.651483
 H        -0.455864         0.741515        -1.097811
 H        -0.556598        -0.594243        -0.059115
 H         2.577409         2.091004        -0.867353
 H         2.002839         1.915860         0.830608
 H         4.337200         0.665196         2.162231
 H         3.931298        -0.061672        -1.655461
 H         4.437430        -1.255716        -0.448706
 H         1.761628        -2.518383        -1.682222
 H         1.647315        -1.020919         1.854154
