19
Iteration:  3324charge 0 multiplicity 1
 C        -0.044372         0.341424        -0.207649
 C         1.414962         0.211341        -0.042697
 C         2.281795         1.434678         0.018613
 C         3.410431         0.356343         0.525159
 O         4.500381         0.836415         1.298209
 C         3.740804        -0.599033        -0.663924
 C         2.250161        -1.126544        -0.521484
 O         1.674657        -2.334700        -0.730559
 C         2.301592        -0.643122         0.934305
 H        -0.260663         1.409661         0.143690
 H        -0.508576         0.128799        -1.226464
 H        -0.637494        -0.227496         0.488814
 H         2.564934         2.025419        -0.834178
 H         2.083983         2.046361         0.841104
 H         4.056195         1.430175         1.934502
 H         3.952791        -0.099781        -1.598011
 H         4.469978        -1.404489        -0.508735
 H         1.649603        -2.601524        -1.648088
 H         1.881418        -1.016204         1.937673
