19
Iteration:  3152
 C        -0.048242         0.253771        -0.164790
 C         1.389562         0.251273        -0.109840
 C         2.454934         1.507792        -0.062463
 C         3.333590         0.414394         0.545888
 O         4.502915         0.676170         1.232267
 C         3.579169        -0.503260        -0.636638
 C         2.291281        -1.082100        -0.412392
 O         1.775290        -2.426411        -0.738176
 C         2.162028        -0.491748         0.958711
 H        -0.482543         1.266817         0.256015
 H        -0.377330         0.361118        -1.182731
 H        -0.516679        -0.630932         0.291848
 H         2.798487         2.055304        -0.883546
 H         2.179364         2.228549         0.781960
 H         4.232010         0.954095         2.091344
 H         3.914256        -0.225189        -1.659219
 H         4.335983        -1.292271        -0.364084
 H         2.186974        -2.743275        -1.585268
 H         1.644448        -0.752844         2.044182
