19
Iteration:  2876charge 0 multiplicity 1
 C        -0.139235         0.211219        -0.288716
 C         1.334836         0.172314         0.006165
 C         2.344354         1.401866         0.031842
 C         3.429863         0.351836         0.491918
 O         4.543179         0.788701         1.357455
 C         3.714983        -0.575922        -0.719302
 C         2.311522        -1.036542        -0.449691
 O         1.673270        -2.248714        -0.728187
 C         2.267671        -0.572604         0.976748
 H        -0.916115         0.692758         0.317871
 H        -0.404003         0.530012        -1.257064
 H        -0.384661        -0.845003        -0.299282
 H         2.436530         1.989979        -0.839845
 H         2.208215         2.127096         0.910043
 H         4.900147         1.673179         1.278019
 H         4.084879        -0.177200        -1.630521
 H         4.411675        -1.312870        -0.367372
 H         1.348016        -2.293834        -1.668186
 H         1.999047        -1.027578         2.029437
