19
Iteration:  2171charge 0 multiplicity 1
 C         0.034422         0.084522        -0.300115
 C         1.448429         0.207652        -0.043836
 C         2.392619         1.358427        -0.082538
 C         3.432944         0.323772         0.537182
 O         4.520847         0.822330         1.379286
 C         3.665340        -0.633055        -0.602394
 C         2.163876        -1.038910        -0.368234
 O         1.528104        -2.121905        -0.938596
 C         2.218856        -0.459849         1.113772
 H        -0.639591         0.884565         0.050932
 H         0.013828        -0.076485        -1.347408
 H        -0.352064        -0.866061         0.100135
 H         2.806093         1.785070        -1.057732
 H         2.059573         2.085630         0.602276
 H         4.818800         1.796542         1.344842
 H         4.009049        -0.270001        -1.600188
 H         4.340424        -1.443818        -0.184479
 H         2.145167        -2.844930        -0.885590
 H         2.039055        -0.934586         2.002386
