19
Iteration:  3088charge 0 multiplicity 1
 C        -0.020549         0.202695        -0.242673
 C         1.451693         0.198935         0.060871
 C         2.387036         1.296464        -0.103443
 C         3.428657         0.346695         0.537765
 O         4.476354         0.973876         1.265781
 C         3.715224        -0.665625        -0.546459
 C         2.272959        -1.146032        -0.360438
 O         1.548532        -2.205113        -0.964376
 C         2.282168        -0.592532         1.066563
 H        -0.596500         0.946862         0.372471
 H        -0.143336         0.295049        -1.339852
 H        -0.463100        -0.817556        -0.011786
 H         2.868236         1.626514        -1.062996
 H         2.495618         2.191690         0.633035
 H         4.067426         1.763298         1.734156
 H         4.058854        -0.225103        -1.509149
 H         4.400209        -1.488315        -0.197520
 H         0.807055        -1.760067        -1.446937
 H         2.212923        -1.094624         2.177785
