19
Iteration:  1249
 C        -0.189456        -0.030755         0.004181
 C         1.330837         0.252385        -0.059151
 C         2.382460         1.491516        -0.163758
 C         3.435599         0.497165         0.473841
 O         4.593202         0.635448         1.318097
 C         3.663995        -0.596248        -0.529538
 C         2.276304        -1.060259        -0.374466
 O         1.697613        -2.247037        -0.996446
 C         2.243158        -0.354616         1.038455
 H        -0.770913         0.312465         0.860562
 H        -0.586292         0.313621        -0.891398
 H        -0.302294        -1.160855        -0.027853
 H         2.764253         1.987133        -1.108657
 H         2.140383         2.392221         0.502500
 H         4.637444         1.607352         1.621345
 H         4.145305        -0.414878        -1.490701
 H         4.376470        -1.285145        -0.086196
 H         1.673106        -2.190940        -1.945397
 H         1.868825        -0.741939         1.863188
