19
Iteration:  3604charge 0 multiplicity 1
 C        -0.136557         0.397895        -0.178692
 C         1.343693         0.176879        -0.029124
 C         2.398476         1.425283         0.031364
 C         3.358899         0.436599         0.521006
 O         4.616662         0.797862         1.211303
 C         3.674599        -0.602926        -0.597898
 C         2.234909        -1.134445        -0.476313
 O         1.856901        -2.464115        -0.838130
 C         2.100372        -0.542943         1.032681
 H        -0.525224         1.149755         0.547112
 H        -0.261717         0.687284        -1.286871
 H        -0.852940        -0.587680        -0.044860
 H         2.596394         1.875425        -1.026029
 H         2.012186         2.214806         0.768970
 H         4.396749         1.385170         1.951502
 H         4.068870        -0.269139        -1.578860
 H         4.387190        -1.301013        -0.121369
 H         1.505045        -2.291007        -1.741809
 H         1.726849        -0.666316         2.042998
