19
Iteration:  3673charge 0 multiplicity 1
 C        -0.023579         0.139794        -0.180076
 C         1.462385         0.179396        -0.002380
 C         2.424718         1.465444        -0.117131
 C         3.441388         0.450459         0.553088
 O         4.505788         0.887554         1.386364
 C         3.665525        -0.735725        -0.639147
 C         2.222151        -1.117449        -0.443301
 O         1.598975        -2.225655        -0.953137
 C         2.259157        -0.515835         0.999422
 H        -0.559565         0.577719         0.711614
 H        -0.346452         0.618869        -1.198847
 H        -0.426874        -0.956375        -0.288948
 H         2.772214         1.759585        -1.188930
 H         2.248800         2.324442         0.452564
 H         4.139911         1.700637         1.919329
 H         4.004215        -0.500394        -1.646149
 H         4.328767        -1.509531        -0.211876
 H         0.838268        -2.498993        -0.380339
 H         2.220027        -1.068814         1.968570
