19
Iteration:  4798
 C        -0.116540         0.300516        -0.099033
 C         1.355483         0.163872        -0.157362
 C         2.421400         1.283275        -0.009621
 C         3.400093         0.295649         0.579811
 O         4.414701         0.869066         1.329897
 C         3.714275        -0.554396        -0.657381
 C         2.246310        -1.037804        -0.431424
 O         1.802965        -2.272518        -0.863179
 C         2.244504        -0.666120         0.982248
 H        -0.612059         0.645520         0.834720
 H        -0.324933         1.203078        -0.702976
 H        -0.718327        -0.501929        -0.345441
 H         2.684983         2.136760        -0.734937
 H         2.145513         1.820409         0.869704
 H         4.288912         1.813999         1.312832
 H         3.961563         0.081772        -1.654833
 H         4.428965        -1.319865        -0.432236
 H         1.800481        -2.196073        -1.841183
 H         1.991049        -1.232905         1.861660
