19
Iteration:  2160
 C        -0.045896         0.061706        -0.309255
 C         1.457174         0.189163        -0.025504
 C         2.457315         1.366060        -0.057040
 C         3.493578         0.410120         0.563269
 O         4.464892         0.857060         1.366425
 C         3.734255        -0.718659        -0.587618
 C         2.292334        -1.054322        -0.347903
 O         1.477113        -2.070651        -0.954726
 C         2.205995        -0.528804         1.050440
 H        -0.547541         0.974040         0.068567
 H        -0.386035        -0.022695        -1.294016
 H        -0.411805        -0.798059         0.259676
 H         2.681641         1.922448        -1.046413
 H         2.186038         2.068890         0.691810
 H         4.359342         1.778862         1.138912
 H         4.007332        -0.338619        -1.602702
 H         4.394877        -1.603073        -0.347402
 H         1.903170        -2.904234        -0.710342
 H         1.911666        -0.928815         1.939382
