19
Iteration:  3547charge 0 multiplicity 1
 C        -0.031464         0.078891        -0.264530
 C         1.477389         0.183682        -0.005086
 C         2.406995         1.410719        -0.057964
 C         3.479294         0.422378         0.524978
 O         4.551693         0.846751         1.306672
 C         3.745625        -0.613622        -0.588565
 C         2.230707        -1.121608        -0.381000
 O         1.371231        -2.218483        -0.867503
 C         2.282694        -0.505451         1.076073
 H        -0.813228         0.867672         0.076590
 H        -0.170121         0.078506        -1.392376
 H        -0.284179        -1.086408        -0.021366
 H         2.610406         1.873065        -1.056198
 H         2.198765         2.273242         0.770104
 H         4.146870         1.621891         1.866625
 H         3.936240        -0.013340        -1.523495
 H         4.669519        -1.193912        -0.491364
 H         1.733546        -2.224292        -1.778140
 H         2.415639        -1.083242         2.002290
