19
Iteration:   976charge 0 multiplicity 1
 C        -0.073886         0.063211        -0.171274
 C         1.430441         0.188909         0.082115
 C         2.371764         1.408165         0.034637
 C         3.384180         0.381864         0.545562
 O         4.436862         0.834561         1.373249
 C         3.707340        -0.474873        -0.762281
 C         2.308062        -1.002697        -0.496932
 O         1.587805        -2.109196        -0.907247
 C         2.307809        -0.659703         0.970776
 H        -0.754142         0.589974         0.577566
 H        -0.364093         0.556133        -1.114993
 H        -0.267626        -1.039037        -0.190882
 H         2.533490         1.769734        -1.052041
 H         2.018360         2.277191         0.727378
 H         5.191783         0.206316         1.116986
 H         3.751070        -0.013523        -1.763672
 H         4.576334        -1.167580        -0.589241
 H         1.768994        -2.885052        -0.347570
 H         2.227596        -1.316690         1.870354
