19
Iteration:   239
 C        -0.078389         0.294990         0.024339
 C         1.391239         0.181233         0.055030
 C         2.331021         1.290120         0.017678
 C         3.428997         0.361555         0.537610
 O         4.438094         0.896184         1.349314
 C         3.578881        -0.590732        -0.727633
 C         2.218882        -1.048173        -0.420872
 O         1.785789        -2.258038        -1.099809
 C         2.351831        -0.656536         0.968577
 H        -0.536601         0.866392         0.874996
 H        -0.322344         1.022502        -0.836455
 H        -0.506927        -0.705455        -0.205575
 H         2.555585         1.698155        -1.023173
 H         2.059782         2.184194         0.739625
 H         4.844256         1.526399         0.776593
 H         3.937555        -0.086620        -1.743950
 H         4.331014        -1.345749        -0.379995
 H         1.410331        -2.837724        -0.425579
 H         2.287976        -1.097207         1.889604
