19
Iteration:  2567charge 0 multiplicity 1
 C        -0.071180         0.120153        -0.262489
 C         1.418331         0.268683        -0.001473
 C         2.395519         1.470285        -0.030397
 C         3.417729         0.358416         0.501162
 O         4.422011         0.790633         1.349646
 C         3.632159        -0.499308        -0.682454
 C         2.211610        -1.023112        -0.365382
 O         1.757794        -2.282599        -0.846419
 C         2.274935        -0.559014         1.020877
 H        -0.593637         0.927343         0.243116
 H        -0.289136        -0.012522        -1.250733
 H        -0.508024        -0.772878         0.286191
 H         2.723559         1.851597        -0.958072
 H         2.089157         2.171248         0.804947
 H         5.173577         0.259920         1.306112
 H         3.917081        -0.095493        -1.611877
 H         4.403875        -1.247337        -0.330354
 H         1.152888        -2.265917        -1.608404
 H         2.015990        -1.144027         2.033298
