19
Iteration:  3092
 C        -0.025911         0.200891        -0.231757
 C         1.464916         0.220679         0.061065
 C         2.399706         1.295329        -0.108900
 C         3.429166         0.371698         0.567587
 O         4.459971         0.937278         1.268493
 C         3.734168        -0.647070        -0.557672
 C         2.282928        -1.135956        -0.376083
 O         1.543669        -2.217146        -0.958977
 C         2.281626        -0.574824         1.073149
 H        -0.576679         0.890018         0.324574
 H        -0.190419         0.228785        -1.332934
 H        -0.477969        -0.765267         0.059389
 H         2.712505         1.604387        -1.185390
 H         2.431319         2.095167         0.537844
 H         4.046074         1.664687         1.706286
 H         4.089373        -0.246679        -1.499878
 H         4.284251        -1.439089        -0.086747
 H         0.811407        -1.815837        -1.442418
 H         2.325980        -1.080709         1.958569
