19
Iteration:  2870
 C        -0.117670         0.171748        -0.267817
 C         1.353426         0.214048         0.030888
 C         2.373232         1.415601         0.036056
 C         3.410740         0.420952         0.505505
 O         4.505775         0.770333         1.374348
 C         3.704478        -0.611714        -0.752813
 C         2.283979        -1.014731        -0.468068
 O         1.683211        -2.287919        -0.704703
 C         2.260200        -0.575858         0.941060
 H        -0.743703         0.788190         0.468315
 H        -0.204489         0.697243        -1.335228
 H        -0.493777        -0.878229        -0.377654
 H         2.523397         2.078548        -0.927517
 H         2.124579         2.013872         0.867451
 H         4.911245         1.611036         1.263174
 H         4.104494         0.046695        -1.629442
 H         4.484473        -1.360284        -0.411055
 H         1.301407        -2.482229        -1.573119
 H         2.059691        -1.053276         1.775049
