19
Iteration:  3635
 C        -0.102775         0.385822        -0.125503
 C         1.353266         0.070832        -0.133209
 C         2.433319         1.327073        -0.102563
 C         3.336291         0.360646         0.529620
 O         4.474832         0.793780         1.261909
 C         3.682856        -0.638270        -0.650179
 C         2.316602        -1.046438        -0.425499
 O         1.869498        -2.307312        -0.832285
 C         2.165490        -0.485090         1.063219
 H        -0.338104         0.968673         0.761698
 H        -0.280563         1.083856        -0.890568
 H        -0.814924        -0.466724        -0.088982
 H         2.607172         1.731354        -1.110605
 H         1.964966         2.144944         0.604163
 H         4.219096         1.292284         2.082611
 H         3.906214        -0.181232        -1.639240
 H         4.367828        -1.396591        -0.261921
 H         0.915019        -2.183003        -1.004452
 H         2.047837        -1.054521         1.915329
