19
Iteration:   856
 C        -0.046459         0.097810        -0.090473
 C         1.458539         0.206693        -0.008697
 C         2.351351         1.448576         0.230035
 C         3.415532         0.365875         0.498558
 O         4.359976         0.816305         1.314184
 C         3.721115        -0.444470        -0.845651
 C         2.330267        -1.066795        -0.509526
 O         1.585622        -2.228336        -0.909891
 C         2.289099        -0.629210         0.924844
 H        -0.617517         0.690137         0.695426
 H        -0.350504         0.452125        -1.079074
 H        -0.342042        -0.932816         0.040118
 H         2.691180         2.218318        -0.516211
 H         2.095143         2.076568         1.022492
 H         5.260834         0.636630         1.209334
 H         3.759304         0.037292        -1.822136
 H         4.688791        -0.974150        -0.797082
 H         1.773375        -2.999744        -0.310004
 H         1.980519        -0.923010         1.812416
