19
Iteration:  2659charge 0 multiplicity 1
 C        -0.174138         0.298976        -0.152898
 C         1.311194         0.182931        -0.094268
 C         2.369843         1.403568        -0.056989
 C         3.408075         0.375362         0.555301
 O         4.518240         0.767378         1.287351
 C         3.697391        -0.579880        -0.623249
 C         2.274547        -1.134284        -0.393029
 O         1.791239        -2.305733        -0.841032
 C         2.267476        -0.514196         0.995922
 H        -0.532384         0.714555         0.757471
 H        -0.520140         0.837338        -1.033521
 H        -0.650766        -0.615158        -0.190995
 H         2.725108         1.877733        -1.014743
 H         1.993689         2.092339         0.650429
 H         4.130894         1.571282         1.783213
 H         4.002044        -0.301137        -1.635973
 H         4.399032        -1.285167        -0.236555
 H         1.867032        -2.181240        -1.788752
 H         2.098586        -1.067449         1.919871
