19
Iteration:  4402
 C        -0.124048         0.300393        -0.332879
 C         1.377455         0.165621        -0.007401
 C         2.329235         1.412413         0.062362
 C         3.450625         0.450906         0.502255
 O         4.506579         0.907817         1.295602
 C         3.720398        -0.615053        -0.593236
 C         2.250011        -1.098384        -0.369874
 O         1.723191        -2.442303        -0.859344
 C         2.216016        -0.606610         1.058794
 H        -0.492349         0.895472         0.502228
 H        -0.194765         1.095802        -1.097715
 H        -1.016776        -0.416243        -0.504446
 H         2.541948         2.101811        -0.834472
 H         2.170613         2.049679         0.946540
 H         5.328460         0.972089         0.684827
 H         4.069518        -0.235362        -1.537699
 H         4.493120        -1.394088        -0.296122
 H         1.111403        -2.247740        -1.583223
 H         1.989006        -0.963391         2.026932
