19
Iteration:  1218
 C        -0.003451         0.182603        -0.138670
 C         1.425422         0.186764        -0.067041
 C         2.305805         1.341977         0.051521
 C         3.428306         0.376073         0.518398
 O         4.453863         0.874748         1.330867
 C         3.691831        -0.605232        -0.717658
 C         2.306556        -1.063762        -0.459062
 O         1.668441        -2.212711        -0.783005
 C         2.242601        -0.607449         0.988665
 H        -0.457932         0.663034         0.734611
 H        -0.301186         0.652248        -1.024803
 H        -0.478086        -0.840146        -0.184115
 H         2.618053         1.933769        -0.939452
 H         2.050003         2.047529         0.944021
 H         4.663864         1.669538         0.862892
 H         3.843123        -0.141985        -1.709276
 H         4.411832        -1.365822        -0.413274
 H         1.310436        -2.235388        -1.711982
 H         1.932291        -1.281142         1.691061
