19
Iteration:  3197charge 0 multiplicity 1
 C        -0.106409         0.348469        -0.337024
 C         1.383957         0.115600         0.024497
 C         2.350229         1.282731        -0.008750
 C         3.430226         0.396764         0.550785
 O         4.549934         0.855793         1.221012
 C         3.688012        -0.637486        -0.608223
 C         2.202801        -1.084625        -0.396216
 O         1.662708        -2.258165        -0.768745
 C         2.302163        -0.594362         1.038969
 H        -0.701796         0.872480         0.464734
 H        -0.209072         1.084977        -1.111423
 H        -0.715637        -0.569455        -0.613034
 H         2.546891         1.673334        -0.937863
 H         1.996163         2.127865         0.660879
 H         4.339012         1.561478         1.779850
 H         4.157120        -0.147117        -1.506276
 H         4.549055        -1.264563        -0.319676
 H         1.776877        -2.341056        -1.737559
 H         2.160634        -1.065942         2.040235
