19
Iteration:  3442
 C        -0.083670         0.403679        -0.147887
 C         1.397796         0.153892        -0.011376
 C         2.395891         1.385709        -0.136333
 C         3.371912         0.315454         0.554449
 O         4.467433         0.855020         1.309753
 C         3.714787        -0.633772        -0.669637
 C         2.225596        -1.081872        -0.385751
 O         1.802257        -2.363835        -0.876156
 C         2.246502        -0.595083         0.992065
 H        -0.506140         0.864284         0.713071
 H        -0.280949         0.970655        -1.092356
 H        -0.654018        -0.511981        -0.234586
 H         2.808951         1.900192        -1.087555
 H         2.123811         2.164044         0.770664
 H         4.021635         1.674309         1.783142
 H         4.016474        -0.140049        -1.646836
 H         4.400221        -1.460025        -0.377692
 H         0.816524        -2.284485        -0.936163
 H         2.034659        -0.996203         1.940876
