19
Iteration:   888
 C        -0.229038         0.189415         0.009194
 C         1.287232         0.091735         0.013391
 C         2.283920         1.402165         0.034910
 C         3.472097         0.388561         0.581957
 O         4.541973         0.851480         1.244008
 C         3.674115        -0.531683        -0.669304
 C         2.230722        -0.998470        -0.484343
 O         1.811920        -2.152855        -1.104258
 C         2.324399        -0.629762         1.038044
 H        -0.435032         1.084626         0.696580
 H        -0.549637         0.624658        -0.959282
 H        -0.809471        -0.691040         0.241059
 H         2.539377         1.746510        -1.012741
 H         1.803595         2.116627         0.748415
 H         5.193221         0.150088         1.599611
 H         3.835323        -0.214306        -1.676389
 H         4.347372        -1.319309        -0.261388
 H         2.050064        -2.950813        -0.591386
 H         2.155276        -1.229558         1.800137
