19
Iteration:  2161
 C        -0.037302         0.066992        -0.306277
 C         1.464817         0.185622        -0.021390
 C         2.448295         1.365100        -0.062115
 C         3.498565         0.410688         0.567117
 O         4.467013         0.849156         1.366673
 C         3.731011        -0.710467        -0.591635
 C         2.277133        -1.049295        -0.345487
 O         1.478281        -2.075989        -0.955129
 C         2.200937        -0.518993         1.049672
 H        -0.542462         0.923800         0.023485
 H        -0.385175        -0.027255        -1.298917
 H        -0.403062        -0.825093         0.241711
 H         2.716635         1.908090        -1.063117
 H         2.167166         2.056723         0.715991
 H         4.370315         1.804741         1.125413
 H         3.998022        -0.335692        -1.591886
 H         4.386859        -1.613349        -0.337139
 H         1.939549        -2.878005        -0.717761
 H         1.933280        -0.945546         1.960482
