19
Iteration:  4049
 C        -0.123838         0.298512        -0.287311
 C         1.337801         0.259440        -0.124874
 C         2.429732         1.374594        -0.061673
 C         3.446983         0.393319         0.481191
 O         4.439768         0.770860         1.465220
 C         3.675848        -0.662069        -0.712310
 C         2.271950        -1.048791        -0.383585
 O         1.822723        -2.308092        -0.774975
 C         2.225362        -0.501730         1.007082
 H        -0.525672         1.032037         0.471719
 H        -0.460355         0.474553        -1.316335
 H        -0.584108        -0.637583         0.005547
 H         2.497922         1.956949        -1.031803
 H         2.155716         1.976356         0.787769
 H         4.969342         1.383130         1.000740
 H         3.728105        -0.426902        -1.798831
 H         4.183616        -1.625159        -0.361976
 H         0.869903        -2.438886        -0.728970
 H         2.120260        -1.032025         2.031702
