19
Iteration:  3974charge 0 multiplicity 1
 C        -0.193218         0.185328        -0.262829
 C         1.350917         0.269499        -0.104214
 C         2.441285         1.296275        -0.012590
 C         3.497445         0.344691         0.526055
 O         4.582117         0.912485         1.200956
 C         3.725350        -0.721366        -0.503016
 C         2.210652        -1.127218        -0.340627
 O         1.643651        -2.224638        -0.908226
 C         2.207091        -0.399378         1.076486
 H        -0.634340         0.670213         0.630670
 H        -0.617566         0.548908        -1.209605
 H        -0.462588        -0.918529        -0.264334
 H         2.652386         1.866119        -1.012859
 H         2.258288         2.060388         0.825864
 H         4.235002         1.345495         2.080318
 H         4.257402        -0.311372        -1.316702
 H         4.296009        -1.562087        -0.042741
 H         1.914990        -2.530089        -1.795813
 H         1.927819        -0.916297         1.984398
