19
Iteration:   870
 C        -0.052303         0.186973        -0.036245
 C         1.397995         0.206415         0.028819
 C         2.280503         1.385125         0.115221
 C         3.396329         0.428036         0.482405
 O         4.485926         0.856701         1.371063
 C         3.700359        -0.479484        -0.790976
 C         2.273364        -1.087615        -0.497781
 O         1.681983        -2.234804        -1.001502
 C         2.273869        -0.601892         0.914778
 H        -0.465861         0.831486         0.715731
 H        -0.453321         0.367901        -1.024846
 H        -0.425860        -0.862942         0.149442
 H         2.250219         2.083136        -0.734547
 H         2.025221         1.771574         1.077445
 H         5.119803         0.136356         1.017599
 H         4.014188         0.079128        -1.730942
 H         4.333324        -1.308699        -0.451882
 H         1.890061        -2.888095        -0.312750
 H         2.093476        -1.171044         1.897227
