19
Iteration:  4693charge 0 multiplicity 1
 C        -0.121458         0.390080        -0.140767
 C         1.371917         0.112908        -0.054732
 C         2.277537         1.342578         0.095026
 C         3.436944         0.309311         0.538595
 O         4.481723         0.975560         1.190495
 C         3.767298        -0.654572        -0.632980
 C         2.303526        -1.107808        -0.462031
 O         1.773243        -2.263334        -0.908861
 C         2.243879        -0.658593         1.012895
 H        -0.308017         1.422468         0.211041
 H        -0.362548         0.311635        -1.213520
 H        -0.882736        -0.358885         0.269729
 H         2.574309         2.129890        -0.615228
 H         1.744297         1.768404         1.045760
 H         4.196088         1.022412         2.168919
 H         4.248931        -0.230130        -1.440079
 H         4.299210        -1.531189        -0.253098
 H         1.410709        -2.163480        -1.799326
 H         1.965605        -1.147775         1.958266
