19
Iteration:  3783
 C        -0.037634         0.277294        -0.201809
 C         1.456629         0.165472        -0.144629
 C         2.345150         1.405669        -0.057392
 C         3.397896         0.365013         0.598687
 O         4.510581         0.800365         1.336166
 C         3.698498        -0.585207        -0.660438
 C         2.251493        -1.061748        -0.493261
 O         1.692014        -2.360734        -0.730567
 C         2.238506        -0.507936         0.953934
 H        -0.343223         1.182274         0.335706
 H        -0.309964         0.429766        -1.272746
 H        -0.606648        -0.597922        -0.024463
 H         2.606686         1.944218        -1.077001
 H         1.889838         2.101832         0.612596
 H         4.416466         1.440414         1.993977
 H         4.165940        -0.246955        -1.544827
 H         4.277657        -1.423696        -0.324908
 H         0.808056        -2.243028        -1.097917
 H         1.967554        -0.905155         1.890336
