19
Iteration:  3035
 C        -0.197130         0.259118        -0.274682
 C         1.407400         0.232667         0.029704
 C         2.326932         1.444264         0.008750
 C         3.403184         0.405883         0.567373
 O         4.561219         0.742370         1.138067
 C         3.693601        -0.548924        -0.536434
 C         2.319341        -1.060217        -0.455762
 O         1.721227        -2.342012        -0.792750
 C         2.218236        -0.618365         1.034440
 H        -0.785638         0.820269         0.386605
 H        -0.306546         0.983622        -1.122898
 H        -0.555721        -0.791450        -0.498632
 H         2.599205         1.988897        -0.985128
 H         2.151272         2.183001         0.738092
 H         4.612719         1.488241         1.775395
 H         4.303392        -0.326544        -1.397982
 H         4.335764        -1.317132        -0.110258
 H         1.544675        -2.357256        -1.770910
 H         1.838399        -1.032220         2.100192
