19
Iteration:  3503charge 0 multiplicity 1
 C        -0.104813         0.263098        -0.208141
 C         1.335234         0.262704        -0.042699
 C         2.386161         1.383178        -0.074535
 C         3.389803         0.359711         0.526241
 O         4.581533         0.786721         1.213403
 C         3.749626        -0.605476        -0.561175
 C         2.233466        -1.060795        -0.386639
 O         1.772223        -2.296426        -0.858898
 C         2.166196        -0.541340         1.050085
 H        -0.507660         1.107766         0.502066
 H        -0.584241         0.355799        -1.223145
 H        -0.451521        -0.805102         0.130112
 H         2.552283         1.872131        -1.030201
 H         2.048416         2.158984         0.666614
 H         4.262177         1.323325         2.032003
 H         4.188894        -0.357736        -1.551153
 H         4.292169        -1.478270        -0.203795
 H         1.031184        -2.104390        -1.476254
 H         1.963270        -1.225023         1.959519
