19
Iteration:  3192charge 0 multiplicity 1
 C        -0.161954         0.339822        -0.339109
 C         1.406104         0.073586         0.021083
 C         2.363900         1.279451        -0.008452
 C         3.439360         0.381556         0.549030
 O         4.554473         0.826969         1.231926
 C         3.683971        -0.595005        -0.647079
 C         2.203212        -1.096252        -0.384267
 O         1.695805        -2.244417        -0.757866
 C         2.274985        -0.537577         1.038411
 H        -0.637216         0.943137         0.451380
 H        -0.131549         1.099549        -1.182286
 H        -0.871705        -0.429533        -0.532559
 H         2.387804         1.812034        -1.100148
 H         2.110736         2.033927         0.705796
 H         4.374620         1.565158         1.920015
 H         4.091809        -0.168424        -1.566116
 H         4.418862        -1.342060        -0.257916
 H         1.899933        -2.467632        -1.672003
 H         2.151870        -1.095185         2.017941
