19
Iteration:  4430
 C        -0.051937         0.198583        -0.281100
 C         1.416671         0.165493        -0.034731
 C         2.389552         1.352204         0.022335
 C         3.405754         0.380975         0.597264
 O         4.490354         1.003697         1.150587
 C         3.655503        -0.690409        -0.593910
 C         2.254169        -0.998219        -0.330112
 O         1.745148        -2.237056        -0.897753
 C         2.162979        -0.635976         1.107100
 H        -0.490934         0.937010         0.466034
 H        -0.307053         0.610550        -1.259364
 H        -0.646116        -0.648269        -0.127974
 H         2.739394         1.807199        -0.896794
 H         2.136771         2.073120         0.797706
 H         4.920412         0.318834         1.731771
 H         4.098059        -0.260040        -1.562365
 H         4.249321        -1.529293        -0.274101
 H         1.125297        -2.020429        -1.614239
 H         1.929155        -1.390780         1.969847
