19
Iteration:  2915
 C        -0.004113         0.172968        -0.202305
 C         1.468093         0.173537         0.086355
 C         2.357322         1.343815        -0.014586
 C         3.425560         0.408068         0.573690
 O         4.578999         0.890761         1.176323
 C         3.673983        -0.608484        -0.515920
 C         2.241771        -1.114286        -0.350229
 O         1.623159        -2.233163        -1.044121
 C         2.160395        -0.581731         1.121472
 H        -0.546902         0.957121         0.336685
 H        -0.148925         0.291642        -1.365521
 H        -0.327103        -0.881708         0.082424
 H         2.643074         1.698284        -1.082679
 H         2.030781         2.162294         0.618621
 H         4.128324         1.642579         1.547386
 H         3.973098        -0.347203        -1.608565
 H         4.408757        -1.386058        -0.140143
 H         1.327874        -1.996917        -1.931057
 H         1.718344        -0.764299         2.166398
