19
Iteration:  3872
 C        -0.166008         0.288680        -0.267736
 C         1.398817         0.134783        -0.061627
 C         2.370422         1.344249         0.021149
 C         3.465367         0.363784         0.581699
 O         4.523153         0.871067         1.153659
 C         3.726823        -0.649779        -0.489882
 C         2.292136        -1.109153        -0.428354
 O         1.722862        -2.233547        -0.865895
 C         2.180732        -0.588769         1.061591
 H        -0.531828         1.187584         0.298036
 H        -0.405511         0.576632        -1.319356
 H        -0.704721        -0.571106         0.020345
 H         2.724891         1.822603        -1.000901
 H         2.286553         2.197315         0.682162
 H         4.264969         1.606049         1.650397
 H         4.199422        -0.449406        -1.428907
 H         4.401547        -1.380250        -0.031561
 H         0.995048        -2.100577        -1.478574
 H         1.932854        -1.074164         2.118625
