19
Iteration:   668charge 0 multiplicity 1
 C        -0.126541         0.119598        -0.204860
 C         1.351710         0.196118        -0.016341
 C         2.263203         1.382702         0.185630
 C         3.412953         0.307480         0.568292
 O         4.580868         0.873487         1.138888
 C         3.705277        -0.573245        -0.679408
 C         2.275295        -1.033775        -0.426469
 O         1.707633        -2.099675        -0.948228
 C         2.194705        -0.553044         1.056535
 H        -0.704550         0.553552         0.678554
 H        -0.486899         0.459586        -1.223950
 H        -0.438946        -0.959853        -0.206604
 H         2.298329         2.150709        -0.617741
 H         1.998995         2.003631         1.102788
 H         5.356469         0.243844         1.239090
 H         4.101326        -0.144002        -1.623722
 H         4.497119        -1.371732        -0.324996
 H         2.258009        -2.908243        -0.790427
 H         1.893144        -1.115504         2.025768
