19
Iteration:   117
 C        -0.175550         0.150437        -0.009991
 C         1.376993         0.149234         0.002729
 C         2.346500         1.401435         0.094071
 C         3.435308         0.336541         0.572735
 O         4.545362         0.943691         1.196858
 C         3.714455        -0.536091        -0.695779
 C         2.251871        -1.020788        -0.534040
 O         1.624430        -2.197243        -0.979094
 C         2.283508        -0.626517         1.003625
 H        -0.457937         1.003095         0.624274
 H        -0.478036         0.186464        -1.095949
 H        -0.765287        -0.682855         0.387978
 H         2.627019         1.973735        -0.833939
 H         1.994532         1.966277         1.025516
 H         5.024868         0.184436         1.569913
 H         4.146628        -0.306870        -1.696164
 H         4.463844        -1.323921        -0.438827
 H         2.282124        -2.875401        -1.085251
 H         1.954899        -0.878890         1.967126
