19
Iteration:  3816charge 0 multiplicity 1
 C        -0.084298         0.155186        -0.154659
 C         1.411319         0.228804        -0.094331
 C         2.416138         1.416375        -0.184352
 C         3.437715         0.312605         0.508617
 O         4.462945         0.813006         1.269082
 C         3.703731        -0.693003        -0.513537
 C         2.273632        -1.106564        -0.294969
 O         1.716636        -2.172346        -0.934009
 C         2.224005        -0.478133         1.035862
 H        -0.670101         0.529623         0.686801
 H        -0.373559         0.578681        -1.123903
 H        -0.401985        -0.871668        -0.126141
 H         2.802410         1.780802        -1.228347
 H         2.416847         2.228816         0.524079
 H         4.122848         1.512534         1.929086
 H         4.082751        -0.239971        -1.389936
 H         4.095985        -1.586640        -0.101069
 H         0.774853        -2.017363        -1.129870
 H         2.009822        -0.763334         2.079532
