19
Iteration:   985charge 0 multiplicity 1
 C        -0.065998         0.074860        -0.213294
 C         1.412458         0.198386         0.044965
 C         2.335370         1.388041         0.016508
 C         3.426707         0.387546         0.553056
 O         4.468919         0.776657         1.349945
 C         3.587917        -0.439276        -0.769672
 C         2.257857        -0.978434        -0.407580
 O         1.658671        -2.158027        -0.954926
 C         2.355951        -0.624519         1.014979
 H        -0.639229         0.568696         0.642136
 H        -0.345469         0.497971        -1.204026
 H        -0.403128        -0.954405        -0.287792
 H         2.542916         1.824691        -0.941207
 H         1.967278         2.137459         0.818679
 H         5.281669         0.158865         1.325443
 H         3.722029         0.176762        -1.656172
 H         4.344506        -1.232188        -0.586984
 H         1.802893        -2.628908        -0.116625
 H         2.269419        -1.089435         1.933932
