19
Iteration:  1861
 C        -0.030657         0.161645        -0.393996
 C         1.426133         0.193852         0.005168
 C         2.368773         1.375883         0.043882
 C         3.432432         0.339060         0.566185
 O         4.637417         0.918022         1.109231
 C         3.622960        -0.725449        -0.507143
 C         2.179127        -1.087293        -0.279496
 O         1.725230        -2.100081        -1.018048
 C         2.148942        -0.574843         1.196606
 H        -0.609363         0.900950         0.293622
 H        -0.288408         0.553821        -1.370467
 H        -0.480932        -0.845094        -0.310558
 H         2.494467         1.864982        -0.980309
 H         1.990428         1.970916         0.865389
 H         4.741458         0.752703         2.101827
 H         3.821548        -0.377546        -1.567208
 H         4.436344        -1.415076        -0.181900
 H         0.780804        -2.174533        -0.860684
 H         1.862379        -1.077521         2.086557
