19
Iteration:  4227
 C        -0.079088         0.230874        -0.273465
 C         1.370877         0.192859        -0.143057
 C         2.362044         1.449815        -0.091477
 C         3.451060         0.393402         0.551898
 O         4.567099         0.814418         1.414442
 C         3.717662        -0.582590        -0.624264
 C         2.323601        -1.044378        -0.390036
 O         1.655948        -2.357769        -0.835845
 C         2.142987        -0.458810         0.959969
 H        -0.496571         0.804436         0.522690
 H        -0.498939         0.677155        -1.155193
 H        -0.754237        -0.719776        -0.250291
 H         2.557429         2.075033        -0.951973
 H         1.769005         1.984669         0.633852
 H         5.309237         0.323000         1.213985
 H         3.847683        -0.134049        -1.669183
 H         4.308431        -1.567749        -0.293243
 H         1.156556        -2.579894        -0.017343
 H         2.080726        -0.912252         1.951873
