19
Iteration:  4824
 C        -0.031000         0.481288        -0.101675
 C         1.321308         0.115645         0.062774
 C         2.288905         1.304846        -0.014617
 C         3.415471         0.429567         0.527817
 O         4.429423         0.915969         1.341226
 C         3.786109        -0.564105        -0.674613
 C         2.241695        -1.132539        -0.461960
 O         1.844094        -2.429997        -1.022881
 C         2.197047        -0.677043         1.055016
 H        -0.399437         1.093587         0.743877
 H        -0.205511         1.172146        -0.939617
 H        -0.779328        -0.419612         0.030634
 H         2.456565         1.670966        -1.001216
 H         1.963563         2.172259         0.627544
 H         4.141011         1.621280         1.864927
 H         4.041974        -0.206842        -1.799238
 H         4.499255        -1.358914        -0.242828
 H         1.529961        -2.142429        -1.914051
 H         2.059598        -1.453967         1.941954
