19
Iteration:   951
 C        -0.108611         0.088615        -0.071942
 C         1.469764         0.140169        -0.059531
 C         2.351152         1.312724         0.060149
 C         3.489668         0.342841         0.491081
 O         4.408397         1.014979         1.359594
 C         3.803304        -0.574653        -0.646023
 C         2.267106        -1.030747        -0.488128
 O         1.460899        -2.116112        -1.004908
 C         2.351600        -0.640360         0.990099
 H        -0.474900         0.690635         0.809762
 H        -0.579220         0.614034        -0.938176
 H        -0.480281        -0.893565         0.032765
 H         2.352337         2.018723        -0.722854
 H         1.923439         1.848996         0.986383
 H         5.296804         0.570105         1.327063
 H         4.135498        -0.238864        -1.629698
 H         4.511996        -1.370981        -0.313315
 H         2.068509        -2.837987        -1.333888
 H         2.150383        -1.004570         1.911732
