19
Iteration:  3374charge 0 multiplicity 1
 C        -0.094152         0.066157        -0.264462
 C         1.433112         0.215655         0.043699
 C         2.415185         1.389834        -0.070942
 C         3.450224         0.457263         0.534756
 O         4.668936         0.796875         1.237335
 C         3.599207        -0.611343        -0.584809
 C         2.202840        -1.149206        -0.329074
 O         1.667901        -2.205489        -0.951657
 C         2.157232        -0.491061         1.133177
 H        -0.700532         0.874798         0.036641
 H        -0.135042         0.106544        -1.359266
 H        -0.666065        -0.816266         0.142262
 H         2.706947         1.980643        -1.076654
 H         2.051816         2.170903         0.763951
 H         4.414530         1.447501         1.872994
 H         4.008749        -0.242674        -1.577601
 H         4.266008        -1.419636        -0.241165
 H         1.233748        -1.799148        -1.741724
 H         1.788336        -0.869885         2.181710
