19
Iteration:  1823charge 0 multiplicity 1
 C        -0.090053         0.272495        -0.228468
 C         1.418933         0.193371        -0.030712
 C         2.375735         1.403627        -0.018118
 C         3.436678         0.395022         0.553342
 O         4.555694         0.871071         1.189625
 C         3.695559        -0.704920        -0.529119
 C         2.276412        -1.109723        -0.349026
 O         1.700859        -2.262187        -0.961725
 C         2.150811        -0.542790         1.057938
 H        -0.518433         0.481867         0.688898
 H        -0.350618         0.968722        -1.064275
 H        -0.559994        -0.676449        -0.544181
 H         2.597223         1.911591        -1.033448
 H         2.141648         2.276731         0.731430
 H         4.413797         0.727455         2.089493
 H         3.998293        -0.230215        -1.474624
 H         4.470565        -1.352659        -0.018402
 H         0.832496        -2.169645        -1.383396
 H         2.021195        -1.137254         2.004335
