19
Iteration:  2934charge 0 multiplicity 1
 C        -0.147760         0.179212        -0.166164
 C         1.413393         0.160847        -0.012523
 C         2.411601         1.364421        -0.081116
 C         3.438463         0.378627         0.582413
 O         4.546936         0.979796         1.202421
 C         3.728700        -0.731732        -0.534211
 C         2.225701        -1.111172        -0.380981
 O         1.682068        -2.199721        -1.002104
 C         2.195989        -0.563931         1.102252
 H        -0.571493         0.990146         0.480906
 H        -0.421363         0.240918        -1.218679
 H        -0.572531        -0.743647         0.220761
 H         2.686328         1.838059        -1.036114
 H         2.359331         2.082796         0.707934
 H         4.347967         1.219873         2.147457
 H         4.077476        -0.319210        -1.473763
 H         4.312259        -1.595101        -0.197937
 H         1.221441        -1.714323        -1.691816
 H         2.020070        -1.166394         1.853434
