19
Iteration:  1666charge 0 multiplicity 1
 C        -0.049368         0.209917        -0.303952
 C         1.394081         0.166274        -0.019766
 C         2.477530         1.386242         0.060494
 C         3.504970         0.413427         0.488476
 O         4.539290         0.946866         1.373351
 C         3.702276        -0.626429        -0.679060
 C         2.238558        -1.123429        -0.410376
 O         1.537764        -2.302320        -0.912164
 C         2.269360        -0.597778         1.006729
 H        -0.743532         0.788222         0.339492
 H        -0.221442         0.459375        -1.363706
 H        -0.540603        -0.798691        -0.173853
 H         2.794836         2.054311        -0.775742
 H         2.163697         2.188304         0.857676
 H         4.026503         1.137050         2.220081
 H         4.002812        -0.172042        -1.666166
 H         4.563937        -1.289881        -0.543352
 H         0.597117        -2.120632        -0.882672
 H         1.995039        -1.072284         2.014228
