19
Iteration:  2775charge 0 multiplicity 1
 C        -0.103407         0.162787        -0.168476
 C         1.388652         0.195725        -0.035001
 C         2.415547         1.302336        -0.061526
 C         3.440126         0.350053         0.546199
 O         4.482819         1.005437         1.300038
 C         3.790100        -0.713409        -0.535718
 C         2.248267        -1.060806        -0.388220
 O         1.667504        -2.226767        -0.992320
 C         2.117264        -0.508686         1.073945
 H        -0.541898         0.901712         0.598997
 H        -0.658712         0.249029        -1.090768
 H        -0.522525        -0.809733         0.313553
 H         2.690507         1.786367        -0.982523
 H         2.119667         1.892040         0.884838
 H         5.380151         0.832953         0.785674
 H         4.106003        -0.273883        -1.542371
 H         4.382113        -1.574293        -0.118587
 H         1.435957        -1.739563        -1.792386
 H         1.954157        -1.025626         1.965960
