19
Iteration:  4068
 C        -0.039925         0.215141        -0.235278
 C         1.438323         0.264407        -0.071693
 C         2.406465         1.510818        -0.088866
 C         3.382830         0.377339         0.502363
 O         4.390058         0.662310         1.360760
 C         3.634970        -0.565945        -0.607370
 C         2.219821        -1.038523        -0.437301
 O         1.819250        -2.374762        -0.789430
 C         2.221046        -0.457900         1.000501
 H        -0.394146         1.054984         0.391207
 H        -0.213264         0.265039        -1.326534
 H        -0.423281        -0.680844         0.164774
 H         2.809447         1.895973        -0.996665
 H         1.920287         2.236781         0.513688
 H         5.154564         0.766965         0.856643
 H         3.973059         0.021361        -1.525929
 H         4.437462        -1.229394        -0.206650
 H         0.914584        -2.362678        -0.423514
 H         1.623875        -0.813030         1.786169
