19
Iteration:  4789charge 0 multiplicity 1
 C        -0.132663         0.265053        -0.138202
 C         1.374128         0.160858        -0.146960
 C         2.393780         1.357171         0.066267
 C         3.440095         0.357427         0.538218
 O         4.448696         0.821865         1.349027
 C         3.756559        -0.538037        -0.662915
 C         2.251864        -1.022362        -0.438259
 O         1.734713        -2.303063        -0.860144
 C         2.205404        -0.598122         0.990364
 H        -0.387861         0.327298         0.936648
 H        -0.638554         0.999531        -0.769285
 H        -0.483784        -0.711944        -0.523054
 H         2.772695         1.958598        -0.804809
 H         2.048928         1.992379         0.859194
 H         4.397693         1.765029         1.281277
 H         4.035637        -0.071951        -1.746912
 H         4.446440        -1.359973        -0.467480
 H         1.785522        -2.287683        -1.840664
 H         1.931510        -1.273826         1.875364
