19
Iteration:  3698charge 0 multiplicity 1
 C        -0.077339         0.140996        -0.264094
 C         1.451235         0.168776        -0.102709
 C         2.397361         1.358386        -0.058631
 C         3.456271         0.339508         0.570120
 O         4.543650         0.835174         1.208545
 C         3.724806        -0.658164        -0.508293
 C         2.295523        -1.117538        -0.372537
 O         1.583545        -2.078033        -0.944600
 C         2.168943        -0.518946         1.075271
 H        -0.699728         0.670077         0.539241
 H        -0.445353         0.397950        -1.304817
 H        -0.335619        -0.869944        -0.024016
 H         2.472746         1.943045        -0.951673
 H         2.326918         1.967620         0.843510
 H         4.234041         1.703596         1.671912
 H         3.884092        -0.100745        -1.473573
 H         4.410982        -1.461303        -0.245560
 H         1.622016        -2.830230        -0.282295
 H         1.809543        -0.660797         2.041661
