19
Iteration:  4640
 C        -0.044586         0.198020        -0.103654
 C         1.398152         0.219735        -0.078247
 C         2.356889         1.414748        -0.129589
 C         3.434073         0.413684         0.511043
 O         4.491224         0.692527         1.392038
 C         3.613815        -0.495037        -0.662022
 C         2.236541        -1.071959        -0.409242
 O         1.767479        -2.317715        -0.907535
 C         2.235084        -0.513407         1.020607
 H        -0.355504         0.913276         0.643167
 H        -0.526380         0.330746        -1.068677
 H        -0.273370        -0.819064         0.393694
 H         2.806250         1.845830        -1.027933
 H         2.073536         2.177396         0.662590
 H         4.054527         1.439529         1.951255
 H         3.726260        -0.119694        -1.764099
 H         4.463515        -1.228051        -0.357607
 H         1.641331        -2.347239        -1.865667
 H         1.808306        -0.759779         2.013477
