19
Iteration:  1314
 C        -0.018822         0.392196        -0.209377
 C         1.443710         0.116831         0.005514
 C         2.243824         1.367216         0.111711
 C         3.464458         0.404892         0.493878
 O         4.477633         1.038053         1.289199
 C         3.730600        -0.599622        -0.724830
 C         2.247505        -1.122153        -0.497628
 O         1.616171        -2.398266        -0.797666
 C         2.386847        -0.694217         0.951455
 H        -0.489121         1.193147         0.366731
 H        -0.143402         0.367384        -1.290813
 H        -0.720196        -0.470767         0.106349
 H         2.240562         2.100324        -0.615625
 H         1.981445         1.916721         1.026475
 H         4.394974         0.705076         2.186571
 H         3.959052        -0.307361        -1.789684
 H         4.478118        -1.375390        -0.444242
 H         1.095289        -2.088083        -1.582924
 H         2.043908        -1.231719         1.722326
