19
Iteration:  4909
 C        -0.059673        -0.031856        -0.326501
 C         1.436643         0.164487         0.000846
 C         2.291664         1.415789        -0.024088
 C         3.442037         0.427338         0.491315
 O         4.508748         0.667410         1.406194
 C         3.702687        -0.529714        -0.657451
 C         2.277423        -1.015413        -0.372846
 O         1.579734        -2.087867        -0.812676
 C         2.308452        -0.505789         1.030134
 H        -0.677851         0.682501         0.224234
 H        -0.274538         0.152672        -1.395622
 H        -0.370919        -1.062555        -0.063929
 H         2.490819         2.011208        -1.009046
 H         1.930481         2.105352         0.734241
 H         4.700904         1.673776         1.557451
 H         3.898199        -0.038959        -1.662920
 H         4.500277        -1.224183        -0.585836
 H         1.602873        -2.033636        -1.786203
 H         2.303220        -1.211940         1.926613
