19
Iteration:    93charge 0 multiplicity 1
 C        -0.173758         0.233697        -0.031902
 C         1.324041         0.201233         0.054661
 C         2.337040         1.313137         0.036526
 C         3.491576         0.374448         0.474420
 O         4.531678         0.882850         1.254240
 C         3.606862        -0.570142        -0.676863
 C         2.221973        -1.044478        -0.364517
 O         1.810041        -2.153997        -1.077034
 C         2.225957        -0.595578         1.053365
 H        -0.626611         0.735262         0.827105
 H        -0.620339         0.368178        -1.021166
 H        -0.453894        -0.811333         0.159626
 H         2.559236         1.772063        -0.995426
 H         2.094003         1.980120         0.875791
 H         5.368167         0.743914         0.713061
 H         3.939404        -0.301927        -1.731020
 H         4.417478        -1.339148        -0.498763
 H         1.680621        -2.983187        -0.547642
 H         2.081513        -1.330473         1.948240
