19
Iteration:  3531
 C        -0.030419         0.062041        -0.276269
 C         1.405548         0.209975        -0.029351
 C         2.444812         1.375283        -0.053135
 C         3.434586         0.393098         0.500877
 O         4.548314         0.852942         1.288255
 C         3.715576        -0.606455        -0.644741
 C         2.269738        -1.068418        -0.324778
 O         1.479305        -2.163493        -0.852179
 C         2.304709        -0.557878         1.077482
 H        -0.464156         0.798140         0.337910
 H        -0.324264         0.004733        -1.311965
 H        -0.389794        -0.846233         0.038365
 H         2.655386         1.893983        -0.995643
 H         2.056509         2.122504         0.715669
 H         4.146111         1.436602         2.042869
 H         4.021390        -0.339603        -1.663104
 H         4.297103        -1.483350        -0.282113
 H         1.462518        -2.102408        -1.842424
 H         1.877143        -0.778184         2.103554
