19
Iteration:  3029
 C        -0.156489         0.283443        -0.270449
 C         1.332434         0.224586         0.004313
 C         2.316025         1.432630        -0.002126
 C         3.371687         0.413837         0.524792
 O         4.579626         0.715747         1.196114
 C         3.699852        -0.553492        -0.596804
 C         2.321891        -1.043870        -0.446565
 O         1.748200        -2.338160        -0.749117
 C         2.212131        -0.577414         1.021430
 H        -0.807942         0.755259         0.595010
 H        -0.363435         0.856078        -1.187220
 H        -0.488794        -0.725416        -0.414519
 H         2.602639         1.850329        -0.919389
 H         2.243409         2.288385         0.802312
 H         4.606582         1.335041         1.875911
 H         4.185561        -0.209412        -1.571025
 H         4.244362        -1.413952        -0.122564
 H         1.759662        -2.415683        -1.729845
 H         1.917336        -1.097810         1.825722
