19
Iteration:   219
 C        -0.137737         0.246428        -0.023953
 C         1.357676         0.110300        -0.038558
 C         2.349076         1.396849         0.093051
 C         3.405839         0.425695         0.483322
 O         4.558384         0.878314         1.272648
 C         3.751818        -0.643298        -0.702125
 C         2.225387        -1.152973        -0.399969
 O         1.791247        -2.244789        -1.111193
 C         2.210957        -0.585820         1.076805
 H        -0.439240         0.829771         0.840092
 H        -0.565719         1.009220        -0.666170
 H        -0.631887        -0.754407        -0.064756
 H         2.318759         2.274704        -0.569490
 H         2.106553         1.871554         1.137885
 H         4.918248         1.694318         0.854847
 H         3.803273        -0.118441        -1.664885
 H         4.495644        -1.369878        -0.553469
 H         1.027929        -2.778397        -0.717411
 H         1.739380        -0.939853         2.063783
