19
Iteration:  4241charge 0 multiplicity 1
 C        -0.092778         0.298294        -0.275670
 C         1.436385         0.175014        -0.113748
 C         2.324492         1.385477        -0.023408
 C         3.413865         0.462346         0.517155
 O         4.486700         0.862973         1.372924
 C         3.750513        -0.588023        -0.614548
 C         2.269132        -1.185624        -0.393994
 O         1.636048        -2.323444        -0.842090
 C         2.241239        -0.543563         0.983027
 H        -0.464584         1.066040         0.387071
 H        -0.252309         0.646566        -1.306183
 H        -0.429018        -0.685723        -0.073233
 H         2.558127         1.927391        -0.939109
 H         2.166517         2.190456         0.773188
 H         5.286447         0.317761         0.990707
 H         4.133996        -0.212838        -1.562411
 H         4.643433        -1.116058        -0.264581
 H         0.854373        -2.466313        -0.297252
 H         1.734449        -0.920201         1.971683
