19
Iteration:  3254charge 0 multiplicity 1
 C        -0.134236         0.111809        -0.222210
 C         1.359250         0.197528        -0.081029
 C         2.389282         1.419823        -0.166842
 C         3.465679         0.407925         0.555793
 O         4.594071         0.797099         1.255817
 C         3.685395        -0.725402        -0.526629
 C         2.238461        -1.074459        -0.330351
 O         1.692470        -2.203514        -0.940369
 C         2.247611        -0.479997         1.105877
 H        -0.492462         0.471359         0.709434
 H        -0.459178         0.749306        -1.101958
 H        -0.624102        -0.918867        -0.411439
 H         2.410229         1.852298        -1.063946
 H         2.067751         2.203276         0.613017
 H         4.405984         1.579044         1.888051
 H         4.219239        -0.147988        -1.321039
 H         4.345101        -1.416668         0.000634
 H         0.855662        -1.837527        -1.248001
 H         1.992474        -0.897183         1.985952
