19
Iteration:  2713charge 0 multiplicity 1
 C        -0.177933         0.175835        -0.361914
 C         1.337550         0.168079         0.033951
 C         2.412196         1.412275         0.006222
 C         3.447847         0.386198         0.515835
 O         4.521336         0.846382         1.326236
 C         3.684657        -0.533850        -0.769395
 C         2.264200        -1.029268        -0.391981
 O         1.710837        -2.300204        -0.725226
 C         2.324839        -0.574664         1.003249
 H        -0.579651         1.006308         0.275540
 H        -0.413983         0.462585        -1.382347
 H        -0.612974        -0.749729        -0.019542
 H         2.617544         2.126229        -0.765128
 H         2.136098         2.119340         0.796217
 H         4.423190         0.235672         2.168594
 H         3.865835        -0.138116        -1.767289
 H         4.419831        -1.285767        -0.707611
 H         1.212253        -2.205025        -1.563104
 H         2.016096        -0.938108         2.041191
