19
Iteration:  3694charge 0 multiplicity 1
 C        -0.074065         0.129128        -0.237065
 C         1.464270         0.185253        -0.119536
 C         2.430127         1.321554        -0.062602
 C         3.465219         0.341013         0.550136
 O         4.522867         0.848277         1.237169
 C         3.714083        -0.645011        -0.531505
 C         2.286892        -1.068190        -0.343193
 O         1.569283        -2.099765        -0.958841
 C         2.202541        -0.517219         1.086630
 H        -0.599369         0.701157         0.550322
 H        -0.467735         0.321597        -1.273925
 H        -0.333401        -0.992682        -0.222592
 H         2.425595         2.003298        -0.992999
 H         2.209812         1.934190         0.808759
 H         4.191529         1.623032         1.629632
 H         4.006531        -0.220103        -1.486214
 H         4.395031        -1.465215        -0.283986
 H         1.405016        -2.745278        -0.268536
 H         1.741771        -0.663055         2.081110
