19
Iteration:  1543
 C         0.006123         0.154739        -0.286745
 C         1.431203         0.165842         0.046110
 C         2.329436         1.358285        -0.043163
 C         3.465548         0.427491         0.473126
 O         4.583894         0.852488         1.383089
 C         3.673487        -0.598489        -0.640983
 C         2.251300        -1.103758        -0.396784
 O         1.452823        -2.135137        -0.994707
 C         2.370398        -0.606155         1.057247
 H        -0.626999         0.706526         0.383110
 H        -0.118605         0.371340        -1.322924
 H        -0.482560        -0.774051        -0.245093
 H         2.492819         1.889951        -1.050742
 H         1.933348         2.144346         0.643020
 H         4.069548         1.502451         1.997687
 H         4.009921        -0.134584        -1.562788
 H         4.311422        -1.314397        -0.131022
 H         1.521210        -2.900618        -0.389366
 H         2.286659        -1.112205         2.070176
