19
Iteration:  4892charge 0 multiplicity 1
 C        -0.079268        -0.089520        -0.268084
 C         1.388074         0.243820        -0.013521
 C         2.398247         1.502002         0.002885
 C         3.415166         0.478866         0.589414
 O         4.560014         0.673852         1.380395
 C         3.737142        -0.511665        -0.704633
 C         2.264167        -0.965478        -0.435006
 O         1.557184        -2.245418        -0.877961
 C         2.301122        -0.523515         0.991575
 H        -0.831869         0.591599         0.164051
 H        -0.319379        -0.061956        -1.356381
 H        -0.309205        -1.106475         0.156903
 H         2.647157         1.954010        -0.897788
 H         2.124611         2.368109         0.687385
 H         4.325987         1.487972         1.950593
 H         4.138734        -0.088544        -1.666826
 H         4.426233        -1.248102        -0.105950
 H         1.117979        -2.237911        -1.763597
 H         2.024541        -0.704268         1.963546
