19
Iteration:  1383
 C        -0.096577         0.072273        -0.183790
 C         1.432895         0.266907        -0.063121
 C         2.324382         1.440812        -0.049201
 C         3.423381         0.419562         0.548244
 O         4.522569         0.739709         1.292900
 C         3.647561        -0.635248        -0.596308
 C         2.246588        -1.035313        -0.327688
 O         1.694970        -2.226233        -0.898746
 C         2.224324        -0.425542         1.061080
 H        -0.601721         0.382680         0.723291
 H        -0.392447         0.449935        -1.122614
 H        -0.378046        -1.011541        -0.229089
 H         2.519893         2.090773        -0.895094
 H         1.960613         2.156729         0.720355
 H         5.228893         0.705983         0.580717
 H         3.948059        -0.204922        -1.575734
 H         4.384641        -1.379346        -0.250917
 H         1.823235        -2.255931        -1.847101
 H         1.905430        -0.959719         2.046868
