19
Iteration:  4012charge 0 multiplicity 1
 C         4.281296        -1.735950         0.823040
 C         3.199066        -0.833236         0.308525
 O         2.025694        -1.289669        -0.432287
 C         1.415719         0.047792        -0.057188
 C        -0.080206        -0.097436        -0.090566
 C         2.159209         1.114802        -1.014856
 C         3.372734         0.688033        -0.098772
 O         4.672365         1.178063        -0.111571
 C         2.354321         0.202524         1.044020
 H         3.850299        -2.443164         1.552194
 H         4.834024        -2.271665         0.033649
 H         5.142676        -1.257183         1.198588
 H        -0.296185        -0.997659         0.488576
 H        -0.745336         0.592480         0.342120
 H        -0.364698        -0.209850        -1.192685
 H         2.128714         0.912122        -2.087283
 H         1.748367         2.072459        -0.836930
 H         4.530628         1.967639         0.431714
 H         2.311033         0.345946         2.252087
