19
Iteration:  4796
 C         4.217770        -1.904850         0.664124
 C         3.158988        -0.756723         0.269730
 O         2.024232        -1.247211        -0.402854
 C         1.402893         0.023436        -0.123427
 C        -0.126576        -0.195038        -0.110621
 C         2.171204         1.028783        -0.940264
 C         3.404682         0.707842        -0.039009
 O         4.635102         1.306424         0.003395
 C         2.455036         0.345029         1.182134
 H         3.791733        -2.488773         1.412535
 H         4.266369        -2.605097        -0.172289
 H         5.222204        -1.438986         0.864635
 H        -0.194394        -1.289419         0.091617
 H        -0.627862         0.439790         0.627560
 H        -0.465499         0.089288        -1.142164
 H         2.216884         0.754464        -2.035224
 H         2.023068         2.138504        -0.874354
 H         5.186304         1.174365        -0.831339
 H         2.551610         0.870520         2.086417
