19
Iteration:  2045
 C         4.155850        -1.775693         0.764881
 C         3.132780        -0.866402         0.192892
 O         2.062370        -1.334936        -0.498073
 C         1.373252        -0.007617        -0.095003
 C        -0.161451        -0.064033         0.049925
 C         2.225322         1.040902        -0.978839
 C         3.400934         0.690132        -0.127446
 O         4.661072         1.250192         0.049235
 C         2.562700         0.267286         0.994120
 H         3.498065        -2.546133         1.307671
 H         4.782186        -2.363003         0.069009
 H         4.720975        -1.013022         1.315766
 H        -0.522863        -0.901156         0.690213
 H        -0.483351         0.969980         0.409659
 H        -0.485096        -0.358342        -1.018802
 H         2.198723         0.846980        -2.096305
 H         2.081986         2.103888        -0.754431
 H         4.472470         2.235596        -0.001708
 H         2.625477         0.524821         2.107179
