19
Iteration:  3897
 C         4.374092        -1.697103         0.695336
 C         3.170742        -0.888238         0.394836
 O         1.978430        -1.358250        -0.385908
 C         1.391649        -0.036062        -0.157569
 C        -0.062736         0.019658        -0.058790
 C         2.246828         0.981640        -1.068944
 C         3.317401         0.681258        -0.034347
 O         4.639420         1.240561        -0.066697
 C         2.320440         0.250713         1.075603
 H         4.085253        -2.658096         1.103350
 H         4.895941        -1.877217        -0.274813
 H         5.168311        -1.106351         1.269738
 H        -0.324042        -0.761174         0.651734
 H        -0.441314         1.067303         0.254948
 H        -0.645218        -0.098331        -0.961864
 H         2.351858         0.663716        -2.117344
 H         1.901829         2.042652        -1.094746
 H         4.638757         1.855892         0.678879
 H         2.110734         0.568984         2.034887
