19
Iteration:  1022charge 0 multiplicity 1
 C         4.212016        -1.870761         0.619878
 C         3.089948        -0.889250         0.264161
 O         2.033396        -1.308615        -0.503332
 C         1.439178         0.029540        -0.136690
 C        -0.039234        -0.061526        -0.004956
 C         2.229761         1.116383        -0.990695
 C         3.367802         0.616218        -0.113204
 O         4.606011         1.347137         0.138193
 C         2.464304         0.193986         1.060788
 H         3.955751        -2.571813         1.388893
 H         4.712569        -2.402175        -0.253714
 H         4.924952        -1.152698         1.120886
 H        -0.315605        -0.525775         0.936371
 H        -0.553217         0.819033        -0.134859
 H        -0.432357        -0.870813        -0.614003
 H         2.314033         1.031406        -2.099303
 H         1.822700         2.050030        -0.647370
 H         4.318914         2.262995         0.117992
 H         2.588345         0.690025         2.091265
