19
Iteration:  4222
 C         4.361330        -1.805585         0.690249
 C         3.156089        -0.850980         0.215716
 O         1.952282        -1.362210        -0.304365
 C         1.391457        -0.018218        -0.102869
 C        -0.176274         0.042107        -0.125855
 C         2.204205         0.892297        -1.098281
 C         3.411019         0.678387        -0.075921
 O         4.639946         1.341484         0.051429
 C         2.457245         0.268610         1.044594
 H         3.921437        -2.597840         1.288134
 H         5.057560        -2.037921        -0.091834
 H         4.962854        -0.997865         1.261675
 H        -0.586167        -0.802374         0.405445
 H        -0.445001         0.852161         0.638591
 H        -0.549589         0.177213        -1.143941
 H         2.406643         0.652428        -2.125763
 H         1.892963         1.932676        -0.985479
 H         4.433774         2.086751         0.630713
 H         2.498394         0.147158         2.054652
