19
Iteration:   149
 C         4.146892        -1.835963         0.736233
 C         3.133038        -0.931799         0.235639
 O         1.930110        -1.285576        -0.558862
 C         1.457422        -0.003223        -0.109163
 C        -0.068373        -0.164319         0.037823
 C         2.284408         1.093503        -0.923085
 C         3.443438         0.673647        -0.144701
 O         4.574707         1.392164         0.173415
 C         2.533763         0.265591         0.945072
 H         3.686235        -2.725253         1.242350
 H         4.726467        -2.235731        -0.230946
 H         4.778960        -1.249876         1.440373
 H        -0.379053        -1.029715         0.717903
 H        -0.676515         0.793517         0.418247
 H        -0.521247        -0.248571        -0.983139
 H         2.370979         1.177617        -2.065033
 H         1.922210         2.075442        -0.587040
 H         5.193874         1.470786        -0.600195
 H         2.382804         0.664289         1.940183
