19
Iteration:  4692charge 0 multiplicity 1
 C         4.196095        -1.787733         0.632652
 C         3.173692        -0.822721         0.310324
 O         1.952649        -1.328567        -0.391818
 C         1.467063        -0.008542        -0.141197
 C        -0.041226        -0.078225         0.016071
 C         2.208049         1.026699        -1.085436
 C         3.432863         0.647384        -0.119831
 O         4.552559         1.336661         0.144383
 C         2.427243         0.290351         0.998920
 H         3.842334        -2.782010         1.085676
 H         4.784617        -2.001753        -0.238925
 H         4.946239        -1.381143         1.328130
 H        -0.271239        -0.401164         1.075393
 H        -0.521915         0.893741        -0.005048
 H        -0.478794        -0.790487        -0.609118
 H         2.478451         0.773058        -2.103509
 H         1.796855         2.039764        -0.920324
 H         5.177749         1.242561        -0.572642
 H         2.520328         0.640300         2.044159
