19
Iteration:  3675
 C         4.285312        -1.801004         0.773293
 C         3.216990        -0.810905         0.284274
 O         1.969959        -1.322237        -0.372552
 C         1.357013         0.041031        -0.071695
 C        -0.120826        -0.099750        -0.071285
 C         2.335630         1.111960        -1.043029
 C         3.403715         0.568015        -0.111075
 O         4.550063         1.233573        -0.063245
 C         2.449892         0.313004         1.053587
 H         3.832991        -2.659270         1.352665
 H         4.994994        -2.167056        -0.014039
 H         4.870826        -1.239936         1.448253
 H        -0.371670        -1.096760         0.292553
 H        -0.599122         0.580974         0.566159
 H        -0.462870         0.049250        -1.180159
 H         2.317011         0.805354        -2.094601
 H         1.949744         2.102035        -0.817705
 H         4.375851         2.175901         0.057477
 H         2.369723         0.561195         2.049318
