19
Iteration:  2352charge 0 multiplicity 1
 C         4.207902        -1.817028         0.646105
 C         3.160648        -0.801382         0.379805
 O         2.054544        -1.231754        -0.472750
 C         1.407358         0.052834        -0.133914
 C        -0.113020         0.008317        -0.010990
 C         2.296733         0.900616        -0.994133
 C         3.409381         0.656485        -0.108693
 O         4.597055         1.252642        -0.045236
 C         2.338870         0.164829         1.125517
 H         4.133712        -2.490959         1.457848
 H         4.557204        -2.284418        -0.253623
 H         5.183040        -1.266864         0.906191
 H        -0.166575        -0.622255         0.737114
 H        -0.366209         0.995032         0.311458
 H        -0.745604        -0.450597        -0.802213
 H         2.491086         0.615798        -2.100353
 H         1.902342         1.918518        -0.789123
 H         4.693740         2.103364         0.392115
 H         2.125951         0.734056         2.037106
