19
Iteration:  4471
 C         4.241535        -1.759176         0.803307
 C         3.162959        -0.872843         0.227379
 O         2.032977        -1.272490        -0.460790
 C         1.434004        -0.062589        -0.118175
 C        -0.077539        -0.071315        -0.054675
 C         2.196529         1.117404        -0.970256
 C         3.358684         0.660541        -0.097627
 O         4.628471         1.254697        -0.026118
 C         2.430220         0.190926         1.098058
 H         3.831786        -2.566799         1.340301
 H         4.913800        -2.104357         0.090138
 H         4.731741        -1.109771         1.577219
 H        -0.382640        -0.612387         0.814098
 H        -0.351161         0.991652        -0.057006
 H        -0.415873        -0.469357        -0.970233
 H         2.141118         0.960380        -2.070726
 H         1.808929         2.129143        -0.708441
 H         4.673694         1.958529        -0.658388
 H         2.241958         0.232523         2.233172
