19
Iteration:  2656charge 0 multiplicity 1
 C         4.311285        -1.707250         0.556052
 C         3.116276        -0.844824         0.311642
 O         1.974426        -1.354708        -0.322374
 C         1.416028        -0.028027        -0.150510
 C        -0.079742         0.097133        -0.054182
 C         2.282089         0.942381        -1.034337
 C         3.354375         0.635627        -0.002119
 O         4.637978         1.247214         0.002303
 C         2.390508         0.206040         1.108809
 H         4.039320        -2.726810         0.768472
 H         4.793698        -1.658970        -0.418789
 H         4.999558        -1.369461         1.381232
 H        -0.674606        -0.421033         0.645861
 H        -0.238010         1.212743        -0.005862
 H        -0.543743        -0.285078        -0.972481
 H         2.502183         0.489841        -2.037950
 H         1.786807         1.961319        -1.049926
 H         4.425929         2.189205         0.282906
 H         2.351313         0.272315         2.167471
