19
Iteration:  2638
 C         4.368832        -1.751494         0.542482
 C         3.067279        -0.824093         0.416166
 O         2.007272        -1.410694        -0.420188
 C         1.431860        -0.048396        -0.098820
 C        -0.087261         0.152236        -0.047402
 C         2.283534         0.938291        -1.057310
 C         3.317290         0.742669         0.058951
 O         4.642006         1.224311        -0.039053
 C         2.332431         0.187794         1.088365
 H         4.039494        -2.684184         1.068605
 H         4.832049        -1.962028        -0.477380
 H         4.975448        -1.096489         1.080462
 H        -0.308022        -0.521132         0.813879
 H        -0.264870         1.108582         0.306675
 H        -0.593068        -0.266615        -1.055800
 H         2.519789         0.600488        -2.024489
 H         1.867643         1.905371        -1.052658
 H         4.849990         2.165355         0.264782
 H         1.854480         0.523875         2.055064
