19
Iteration:  4148
 C         4.152118        -1.768937         0.724339
 C         3.079781        -0.754806         0.277109
 O         2.064217        -1.243515        -0.449521
 C         1.358577        -0.001900        -0.049008
 C        -0.085759        -0.206196        -0.069197
 C         2.281388         1.075717        -0.951780
 C         3.445865         0.679412        -0.070480
 O         4.707593         1.230615        -0.087462
 C         2.352685         0.186557         1.079459
 H         3.927935        -2.077559         1.760092
 H         4.391866        -2.434044        -0.109552
 H         5.025406        -1.076153         0.903532
 H        -0.448742        -0.603024         0.937776
 H        -0.564212         0.825263        -0.104257
 H        -0.170920        -0.930843        -0.868953
 H         2.340912         0.754025        -2.032069
 H         2.002565         2.186232        -0.965739
 H         4.545629         2.185087         0.194887
 H         2.318375         0.420691         2.044491
