19
Iteration:   954
 C         4.316168        -1.787767         0.570105
 C         3.227333        -0.786195         0.227391
 O         1.949856        -1.298158        -0.388331
 C         1.367880         0.001974        -0.072402
 C        -0.056093        -0.081714        -0.148935
 C         2.194100         1.093416        -0.865482
 C         3.407431         0.578738        -0.125873
 O         4.631381         1.240008         0.058820
 C         2.375214         0.248323         1.089630
 H         3.840478        -2.428220         1.393349
 H         4.670304        -2.339855        -0.264681
 H         5.136340        -1.145792         0.970935
 H        -0.513675        -0.775358         0.501044
 H        -0.441075         0.955730        -0.052822
 H        -0.311493        -0.599660        -1.050615
 H         2.166283         1.167767        -1.980097
 H         1.976815         2.071363        -0.420221
 H         4.458137         2.125969         0.466615
 H         2.463964         0.257663         2.073219
