19
Iteration:  1130charge 0 multiplicity 1
 C         4.196750        -1.758506         0.648015
 C         3.231834        -0.829797         0.173606
 O         1.984205        -1.312819        -0.452720
 C         1.378479        -0.124371        -0.012788
 C        -0.058647        -0.032375        -0.170847
 C         2.133224         0.985493        -0.897273
 C         3.365432         0.757212        -0.106305
 O         4.679393         1.214123         0.082140
 C         2.523474         0.285784         1.110536
 H         3.762426        -2.536217         1.217607
 H         4.723690        -2.313593        -0.216027
 H         4.973862        -1.142406         1.229330
 H        -0.662207        -0.871646         0.285777
 H        -0.429906         0.849413         0.413676
 H        -0.240723         0.361377        -1.223747
 H         2.111278         0.748230        -2.041139
 H         1.641169         1.918047        -0.694244
 H         4.520362         2.182663         0.193660
 H         2.471459         0.538749         2.283504
