19
Iteration:  4120charge 0 multiplicity 1
 C         4.358197        -1.907303         0.753970
 C         3.205652        -0.800311         0.308063
 O         2.002763        -1.302218        -0.412483
 C         1.379417         0.002452        -0.113033
 C        -0.111228        -0.025541        -0.119522
 C         2.079822         1.037153        -1.041533
 C         3.343415         0.729896        -0.133022
 O         4.632883         1.232132         0.041772
 C         2.509181         0.290155         1.040439
 H         4.043189        -2.603856         1.602739
 H         4.730390        -2.500676        -0.133737
 H         5.145853        -1.416328         1.310825
 H        -0.513784        -0.588288         0.740697
 H        -0.594091         0.907586        -0.269411
 H        -0.354881        -0.816614        -0.920005
 H         2.010868         0.855083        -2.139712
 H         1.670750         1.980632        -0.727098
 H         4.570410         2.149811         0.427024
 H         2.678940         0.799992         2.149983
