19
Iteration:  1290
 C         4.234707        -1.735405         0.601696
 C         3.163500        -0.774006         0.370683
 O         2.084503        -1.251685        -0.482155
 C         1.366689        -0.049530        -0.039617
 C        -0.119152        -0.018427        -0.100597
 C         2.203300         0.984299        -0.991712
 C         3.369274         0.678802        -0.073272
 O         4.692855         1.159979         0.020915
 C         2.375016         0.217528         1.131905
 H         3.923330        -2.784767         1.006938
 H         4.828537        -1.782296        -0.335360
 H         5.100305        -1.211522         1.176799
 H        -0.468386        -0.996247         0.230275
 H        -0.626114         0.615392         0.703029
 H        -0.416458         0.394625        -1.085702
 H         2.163482         0.688248        -2.053248
 H         1.732210         1.991115        -0.774273
 H         4.765513         2.137899        -0.071432
 H         2.174887         0.335013         2.253717
