19
Iteration:  1576charge 0 multiplicity 1
 C         4.254600        -1.804042         0.603158
 C         3.176734        -0.796008         0.289142
 O         2.070714        -1.283186        -0.362838
 C         1.400256         0.018129        -0.131884
 C        -0.178718        -0.031289        -0.023473
 C         2.225122         1.037558        -1.040781
 C         3.374455         0.705295        -0.073510
 O         4.610632         1.212872         0.097095
 C         2.461694         0.234825         1.032521
 H         3.890074        -2.627165         1.328976
 H         4.308804        -2.600371        -0.123970
 H         5.171904        -1.253278         0.796330
 H        -0.537987        -0.733103         0.789177
 H        -0.596883         0.963480        -0.172564
 H        -0.479036        -0.675536        -0.956650
 H         2.322076         0.628437        -2.102618
 H         2.055787         2.058012        -0.866692
 H         4.549717         2.185143        -0.023656
 H         2.577337         0.372938         2.185683
