19
Iteration:  1182
 C         4.172209        -1.842403         0.616619
 C         3.114585        -0.927987         0.286214
 O         2.044431        -1.227829        -0.578505
 C         1.389265         0.044550        -0.202175
 C        -0.012841        -0.107272         0.106767
 C         2.322913         1.002520        -0.960694
 C         3.406407         0.633787         0.049391
 O         4.645717         1.365460         0.013312
 C         2.331663         0.265108         1.006230
 H         3.971071        -2.589302         1.450747
 H         4.262934        -2.510402        -0.180700
 H         4.960675        -1.238118         1.139833
 H        -0.109719        -0.542304         1.104590
 H        -0.492554         0.892086        -0.154859
 H        -0.447438        -0.893417        -0.599645
 H         2.493531         0.689087        -2.019683
 H         1.822573         1.981496        -0.710975
 H         4.466629         2.095192         0.620887
 H         2.074492         0.662585         2.011692
