19
Iteration:   165charge 0 multiplicity 1
 C         4.149630        -1.786784         0.663598
 C         3.233246        -0.786430         0.175589
 O         2.057424        -1.270777        -0.485902
 C         1.367578         0.019019        -0.067273
 C        -0.101579        -0.097241        -0.036406
 C         2.146059         1.075721        -1.002852
 C         3.406951         0.654778        -0.096230
 O         4.669797         1.296471         0.165189
 C         2.426724         0.188837         1.073771
 H         3.601139        -2.474717         1.289212
 H         4.741604        -2.337547        -0.020523
 H         4.878229        -1.391465         1.370440
 H        -0.357337        -0.982923         0.486327
 H        -0.486961         0.769381         0.354847
 H        -0.467905        -0.271786        -1.046956
 H         2.085135         0.861506        -2.043490
 H         1.902893         2.135628        -0.767306
 H         5.101575         1.405343        -0.730137
 H         2.554449         0.231882         2.178478
