19
Iteration:  2253charge 0 multiplicity 1
 C         4.123943        -1.793872         0.732475
 C         3.179374        -0.773358         0.238584
 O         2.095159        -1.363067        -0.424936
 C         1.379549         0.034787        -0.030778
 C        -0.074359        -0.029576        -0.100500
 C         2.228703         1.058104        -0.933986
 C         3.399330         0.662024        -0.101231
 O         4.657728         1.253128        -0.119399
 C         2.398763         0.222730         1.149604
 H         3.614796        -2.660822         1.185002
 H         4.712496        -2.198696        -0.112750
 H         4.935783        -1.402031         1.371801
 H        -0.220770        -0.742778         0.634979
 H        -0.467751         0.957455         0.321164
 H        -0.561157        -0.406115        -1.117137
 H         2.391987         0.744455        -2.036017
 H         1.826799         2.070626        -0.816227
 H         4.561663         2.170598         0.077384
 H         2.271799         0.219779         2.205191
