19
Iteration:  1504charge 0 multiplicity 1
 C         4.220144        -1.784312         0.776483
 C         3.167924        -0.850410         0.212215
 O         1.992754        -1.258593        -0.486002
 C         1.425583        -0.024721        -0.018368
 C        -0.088159        -0.035565        -0.054178
 C         2.061588         0.977331        -1.021655
 C         3.458169         0.665573        -0.147665
 O         4.676002         1.293073         0.032209
 C         2.513762         0.171985         1.015456
 H         3.570394        -2.602891         1.052870
 H         5.059108        -2.376429         0.137929
 H         4.787513        -1.230094         1.542335
 H        -0.422342        -0.989719         0.415712
 H        -0.336427         0.989449         0.529256
 H        -0.359643         0.248357        -1.109648
 H         2.006143         0.868012        -2.091022
 H         1.798865         2.014751        -0.561229
 H         4.421270         2.069693         0.605097
 H         2.402099         0.578521         2.041335
