19
Iteration:  2952
 C         4.178993        -1.835269         0.724544
 C         3.231116        -0.809080         0.273753
 O         2.041826        -1.231252        -0.394031
 C         1.421032         0.050523        -0.030961
 C        -0.052397        -0.025197        -0.070134
 C         2.154657         0.922225        -1.023594
 C         3.421638         0.639667        -0.218927
 O         4.574725         1.267836         0.058086
 C         2.476490         0.212696         1.041570
 H         3.826942        -2.624029         1.414277
 H         4.604335        -2.242729        -0.217272
 H         5.042112        -1.361230         1.072113
 H        -0.381855        -0.873261         0.494061
 H        -0.584403         0.844781         0.371949
 H        -0.390645        -0.004654        -1.201755
 H         2.162408         0.717746        -2.058505
 H         1.823285         1.949273        -0.794126
 H         4.342611         2.170904         0.341391
 H         2.446746         0.534235         2.056742
