19
Iteration:  4679
 C         4.204409        -1.828581         0.672929
 C         3.111106        -0.847321         0.306796
 O         2.029089        -1.369244        -0.409296
 C         1.351053         0.044066        -0.094359
 C        -0.099577        -0.140135         0.032569
 C         2.255216         1.087183        -1.128948
 C         3.304106         0.757410        -0.144456
 O         4.643964         1.363839         0.109624
 C         2.573703         0.271646         1.069914
 H         3.495730        -2.691674         0.952188
 H         4.729738        -2.188823        -0.175747
 H         4.818190        -1.512855         1.595006
 H        -0.408420        -0.719973         0.988352
 H        -0.620276         0.795506        -0.204559
 H        -0.282443        -0.742875        -0.815121
 H         2.053784         0.847126        -2.126873
 H         2.014597         2.164164        -1.015121
 H         5.294799         1.008114        -0.580289
 H         2.466070         0.570226         2.068470
