19
Iteration:  1785
 C         4.333877        -1.681294         0.602422
 C         3.181398        -0.787722         0.220401
 O         1.946830        -1.316091        -0.300555
 C         1.383549        -0.050813        -0.034858
 C        -0.107922        -0.053873        -0.129582
 C         2.299441         1.052610        -0.983371
 C         3.384181         0.663041        -0.063481
 O         4.612001         1.122324         0.054176
 C         2.373411         0.254382         1.072480
 H         4.226711        -2.484961         1.307106
 H         4.580512        -2.347443        -0.235828
 H         5.226943        -1.091156         0.583393
 H        -0.802411        -0.485008         0.557274
 H        -0.344236         1.029348        -0.153778
 H        -0.451460        -0.307532        -1.225542
 H         2.314692         0.824630        -2.109591
 H         1.977670         2.079808        -0.715540
 H         4.518521         2.111335         0.116291
 H         2.365294         0.569472         2.079222
