19
Iteration:  4099charge 0 multiplicity 1
 C         4.250381        -1.756126         0.645919
 C         3.178894        -0.821023         0.336802
 O         2.066239        -1.384172        -0.315839
 C         1.395271        -0.054777        -0.123048
 C        -0.120547         0.028643        -0.077000
 C         2.231518         0.976171        -1.031391
 C         3.430652         0.617929        -0.098951
 O         4.612701         1.324780         0.000891
 C         2.421828         0.236535         1.004653
 H         3.787706        -2.600247         1.189661
 H         4.647837        -2.001260        -0.352982
 H         4.949182        -1.294086         1.343340
 H        -0.594974        -0.472698         0.780785
 H        -0.248420         1.081514         0.040383
 H        -0.506547        -0.371495        -1.064745
 H         2.127792         0.819860        -2.096676
 H         1.833331         1.931526        -0.774018
 H         4.371256         2.128302         0.444060
 H         2.052772         0.557659         2.103686
