19
Iteration:  4602
 C         4.323954        -1.674378         0.761091
 C         3.202974        -0.817949         0.302866
 O         1.956947        -1.299110        -0.485886
 C         1.369895        -0.101782        -0.083769
 C        -0.121784         0.080037        -0.075356
 C         2.203995         0.946490        -0.931647
 C         3.425933         0.599517        -0.164164
 O         4.584162         1.337938        -0.052354
 C         2.435377         0.134051         1.087316
 H         3.959655        -2.481705         1.426133
 H         4.699429        -2.168809        -0.136260
 H         5.166328        -1.010539         1.176914
 H        -0.684319        -0.784542         0.364181
 H        -0.331285         0.908950         0.638762
 H        -0.539429         0.284964        -1.025334
 H         2.294305         0.751654        -2.010049
 H         1.829372         1.963759        -0.725570
 H         5.378318         1.182351         0.470584
 H         2.211618         0.305138         2.126379
