19
Iteration:    57charge 0 multiplicity 1
 C         4.380856        -1.790142         0.530733
 C         3.128003        -0.907678         0.310191
 O         1.947251        -1.311858        -0.388831
 C         1.376745         0.069789        -0.138117
 C        -0.082013        -0.036436        -0.184548
 C         2.235183         1.088009        -0.891035
 C         3.389625         0.518306        -0.025291
 O         4.534838         1.284936         0.121308
 C         2.446129         0.269320         1.134002
 H         4.364345        -2.666179         1.227590
 H         4.720774        -2.079242        -0.422848
 H         5.107771        -0.989955         0.869826
 H        -0.335962        -0.809274         0.538475
 H        -0.546372         0.825368         0.161735
 H        -0.433805        -0.287233        -1.239386
 H         2.206059         1.191352        -1.992707
 H         2.003682         2.099882        -0.473485
 H         4.993137         1.276004        -0.739972
 H         2.433895         0.895802         1.990676
