19
Iteration:  3934
 C         4.280046        -1.781843         0.635680
 C         3.150889        -0.801882         0.340667
 O         2.030458        -1.372183        -0.400170
 C         1.401793        -0.016120        -0.085098
 C        -0.164942        -0.025870        -0.052333
 C         2.236972         0.949463        -1.101810
 C         3.345640         0.663495        -0.127845
 O         4.602230         1.299115         0.108083
 C         2.496447         0.251568         1.049440
 H         3.969386        -2.495570         1.413030
 H         4.500614        -2.237738        -0.323071
 H         5.097518        -1.293413         1.068982
 H        -0.614049        -0.257800         0.954374
 H        -0.386307         1.019777        -0.050010
 H        -0.505589        -0.617814        -0.913795
 H         2.507234         0.498341        -2.034164
 H         1.970826         1.974358        -1.076889
 H         4.445662         2.277092         0.255878
 H         2.659160         0.992391         1.935814
