19
Iteration:  3672charge 0 multiplicity 1
 C         4.269866        -1.808482         0.785284
 C         3.217062        -0.816108         0.272935
 O         1.988082        -1.352637        -0.366148
 C         1.357378         0.084580        -0.066528
 C        -0.093910        -0.082061        -0.067676
 C         2.308878         1.087638        -1.029752
 C         3.375722         0.570092        -0.127529
 O         4.557257         1.249027        -0.064330
 C         2.437176         0.307787         1.024932
 H         3.886757        -2.683948         1.346016
 H         4.904375        -2.141556        -0.069249
 H         4.921298        -1.250861         1.529043
 H        -0.359225        -1.124822         0.219825
 H        -0.638909         0.582721         0.570333
 H        -0.432959        -0.018912        -1.036141
 H         2.476119         0.903443        -2.166422
 H         1.981162         2.121653        -0.780077
 H         4.426867         2.172025         0.147957
 H         2.372105         0.537837         2.081164
