19
Iteration:  4377
 C         4.291379        -1.747249         0.628578
 C         3.175463        -0.866573         0.338738
 O         2.004221        -1.337197        -0.377927
 C         1.411793         0.006265        -0.144964
 C        -0.108251         0.003228        -0.144619
 C         2.205750         0.859059        -0.968852
 C         3.406345         0.615243        -0.087822
 O         4.617502         1.332333         0.010986
 C         2.442942         0.333816         1.106230
 H         4.238204        -2.393715         1.603243
 H         4.245785        -2.484119        -0.284567
 H         5.239333        -1.160145         0.750955
 H        -0.459401        -0.928062         0.489841
 H        -0.658865         0.880502         0.277357
 H        -0.523062        -0.043960        -1.175821
 H         2.160079         0.707479        -2.037168
 H         1.989707         1.927760        -0.780609
 H         4.327336         2.115235         0.556912
 H         2.323076         0.573328         2.200900
