19
Iteration:   248
 C         4.293400        -1.846714         0.558043
 C         3.227630        -0.851695         0.171545
 O         2.022456        -1.273689        -0.406978
 C         1.441152        -0.010570        -0.045778
 C        -0.060985         0.009551        -0.128374
 C         2.167034         0.954763        -0.938133
 C         3.340459         0.728617        -0.022754
 O         4.537825         1.331222         0.090991
 C         2.447731         0.219769         1.101707
 H         3.865100        -2.735146         1.069007
 H         4.709665        -2.376530        -0.428815
 H         4.972509        -1.190530         1.047892
 H        -0.668580        -0.489691         0.724837
 H        -0.451649         1.141666         0.138116
 H        -0.456774        -0.173044        -1.139030
 H         2.322122         0.411513        -1.975294
 H         1.857984         1.985926        -1.132062
 H         5.036291         0.938794         0.839480
 H         2.301412         0.691722         2.017886
