19
Iteration:   735
 C         4.362890        -1.723704         0.514368
 C         3.192627        -0.778714         0.393563
 O         2.052115        -1.387012        -0.394248
 C         1.482755        -0.090183        -0.203047
 C        -0.069609         0.096470        -0.091741
 C         2.203468         1.059953        -0.958401
 C         3.298322         0.640692        -0.061562
 O         4.496508         1.227908         0.024452
 C         2.389480         0.135362         1.082805
 H         3.919771        -2.658927         1.159578
 H         4.700518        -2.098101        -0.470036
 H         5.134310        -1.237590         1.122568
 H        -0.521367        -0.642989         0.635195
 H        -0.229375         1.033712         0.565710
 H        -0.705188         0.273982        -0.957635
 H         2.599404         0.848202        -1.985572
 H         1.957912         2.116930        -0.669914
 H         4.537487         1.918479         0.714258
 H         2.237838         0.467293         2.143546
