19
Iteration:  3298
 C         4.232245        -1.834485         0.867421
 C         3.217786        -0.876408         0.339569
 O         1.997835        -1.317063        -0.483118
 C         1.414150         0.004457        -0.142161
 C        -0.079909         0.062898        -0.002055
 C         2.226901         0.988338        -1.097320
 C         3.356457         0.643642        -0.114412
 O         4.610031         1.334970        -0.053386
 C         2.431830         0.210411         0.965223
 H         3.831903        -2.727937         1.411610
 H         4.883189        -2.125384         0.020257
 H         4.947717        -1.267158         1.428022
 H        -0.289680        -0.909771         0.513733
 H        -0.547328         0.836696         0.777390
 H        -0.714161        -0.047201        -0.873494
 H         2.309573         0.824519        -2.182374
 H         1.999304         1.956145        -0.697656
 H         4.590836         1.855363         0.776028
 H         2.400156         0.496415         2.058790
