19
Iteration:  4927
 C         4.259773        -1.790359         0.476005
 C         3.132093        -0.834199         0.351583
 O         1.997189        -1.284806        -0.348511
 C         1.379038        -0.018602        -0.070654
 C        -0.110696        -0.065795        -0.110752
 C         2.313000         1.013348        -1.018877
 C         3.370972         0.620678        -0.092215
 O         4.584172         1.261174         0.157826
 C         2.440787         0.369848         1.095400
 H         3.951371        -2.589242         1.135753
 H         4.612817        -2.248828        -0.538100
 H         5.054565        -1.232863         1.125234
 H        -0.387870        -0.825184         0.675480
 H        -0.533621         0.931998         0.025011
 H        -0.302704        -0.552503        -1.056501
 H         2.141944         0.837853        -2.097993
 H         2.054144         2.083836        -0.714295
 H         4.989193         1.254038        -0.756415
 H         2.425083         0.747201         2.158556
