19
Iteration:   146
 C         4.162731        -1.845029         0.716156
 C         3.116674        -0.969542         0.267133
 O         1.933385        -1.283313        -0.556226
 C         1.451354         0.025529        -0.140293
 C        -0.064828        -0.155113         0.049851
 C         2.283350         1.105568        -0.910662
 C         3.435307         0.672509        -0.141053
 O         4.561683         1.408312         0.172455
 C         2.541669         0.256636         0.913191
 H         3.689989        -2.727500         1.262049
 H         4.718324        -2.248722        -0.095587
 H         4.814011        -1.306746         1.508737
 H        -0.290260        -0.999925         0.696498
 H        -0.565877         0.730889         0.406396
 H        -0.588593        -0.309229        -0.971619
 H         2.442436         1.127446        -2.025478
 H         1.871198         2.108132        -0.604588
 H         5.173698         1.430870        -0.594698
 H         2.426144         0.677016         1.964340
