19
Iteration:  4861
 C         4.298316        -1.822952         0.698596
 C         3.198031        -0.899157         0.304064
 O         2.032798        -1.357740        -0.522486
 C         1.392075         0.069354        -0.125954
 C        -0.054647         0.065095         0.048997
 C         2.159695         1.042213        -1.035418
 C         3.360376         0.610716        -0.139622
 O         4.516755         1.400196         0.061369
 C         2.448333         0.131178         1.042969
 H         4.044194        -2.780273         1.092656
 H         5.273659        -1.945364         0.154979
 H         4.626343        -1.188301         1.619844
 H        -0.472494        -0.354331         0.972065
 H        -0.288249         1.137882         0.105986
 H        -0.699548        -0.317493        -0.767721
 H         2.188065         0.848759        -2.154619
 H         1.976669         2.135363        -0.789856
 H         5.299029         0.880819        -0.045459
 H         2.357071         0.113591         2.117503
