19
Iteration:  1001charge 0 multiplicity 1
 C         4.224215        -1.863208         0.663325
 C         3.215304        -0.764536         0.239765
 O         2.061638        -1.278314        -0.522191
 C         1.406583         0.021993        -0.119107
 C        -0.112709        -0.048768        -0.030992
 C         2.303643         1.019586        -0.889776
 C         3.390467         0.665362         0.007450
 O         4.619167         1.365020        -0.023989
 C         2.359499         0.145682         1.079634
 H         3.700941        -2.526614         1.284744
 H         4.291664        -2.369072        -0.372824
 H         5.269955        -1.543516         0.945203
 H        -0.503528        -0.386541         0.939218
 H        -0.514453         0.860235        -0.226382
 H        -0.560042        -0.899842        -0.541528
 H         2.372699         0.748922        -1.966703
 H         1.959368         2.035516        -0.776778
 H         4.442461         2.262444         0.333339
 H         1.943114        -0.110937         2.170476
