19
Iteration:  4163charge 0 multiplicity 1
 C         4.205792        -1.720534         0.748078
 C         3.148987        -0.807420         0.394725
 O         2.015237        -1.312060        -0.521721
 C         1.425973         0.005598        -0.173356
 C        -0.105970        -0.161975        -0.018747
 C         2.264502         1.074563        -0.980868
 C         3.388561         0.728184        -0.008286
 O         4.775211         1.255444        -0.134516
 C         2.281822         0.220511         1.124135
 H         4.044527        -2.391799         1.623715
 H         4.182917        -2.522457        -0.047483
 H         5.199246        -1.357645         0.872563
 H        -0.363518        -0.808752         0.822160
 H        -0.700443         0.718105        -0.048417
 H        -0.601592        -0.731215        -0.828902
 H         2.477422         0.925832        -2.081244
 H         1.820220         2.021972        -0.663687
 H         4.826287         2.212865         0.007914
 H         1.889856         0.338582         2.265865
