19
Iteration:   914
 C         4.296773        -1.693577         0.554266
 C         3.130060        -0.793407         0.346084
 O         2.115442        -1.259508        -0.513871
 C         1.405849         0.016797        -0.129113
 C        -0.067720        -0.022809        -0.031795
 C         2.192358         0.931358        -1.018768
 C         3.294899         0.686812         0.024324
 O         4.601409         1.128021         0.066223
 C         2.362066         0.241359         1.134619
 H         4.017392        -2.627635         0.939066
 H         4.765795        -1.912499        -0.442861
 H         5.161959        -1.249710         1.095977
 H        -0.476207        -1.006085         0.277762
 H        -0.344054         0.702610         0.696279
 H        -0.458184         0.408626        -0.988280
 H         2.222585         0.531343        -2.043062
 H         2.008652         1.986541        -1.079002
 H         4.621885         2.050187         0.333512
 H         2.368293         0.381592         2.277590
