19
Iteration:  3192charge 0 multiplicity 1
 C         4.304325        -1.641494         0.626186
 C         3.165255        -0.790009         0.375688
 O         1.951172        -1.342838        -0.368098
 C         1.421458         0.032119        -0.107843
 C        -0.080685         0.026909        -0.107524
 C         2.267299         0.947681        -1.019795
 C         3.341972         0.724031        -0.028407
 O         4.665770         1.139511        -0.041343
 C         2.343234         0.168813         1.123550
 H         4.250402        -2.436401         1.406222
 H         4.468771        -2.284034        -0.256300
 H         5.309487        -1.125307         0.839398
 H        -0.639624        -0.429510         0.704958
 H        -0.609826         0.935138        -0.403455
 H        -0.379539        -0.549307        -0.992124
 H         2.661147         0.771524        -2.050514
 H         1.701140         1.942132        -1.020424
 H         4.693391         2.085620         0.170446
 H         2.248253         0.285776         2.273955
