19
Iteration:  2621
 C         4.319772        -1.723038         0.620928
 C         3.196590        -0.816011         0.355583
 O         2.041577        -1.281008        -0.422049
 C         1.367322        -0.007060        -0.199208
 C        -0.096439         0.040620        -0.028897
 C         2.217169         0.934561        -0.988792
 C         3.362860         0.628499        -0.077094
 O         4.602358         1.157398         0.012316
 C         2.356096         0.248975         1.113063
 H         4.135447        -2.580878         1.283758
 H         4.631453        -2.238344        -0.287538
 H         5.298791        -1.191193         0.894681
 H        -0.490003        -0.603164         0.811934
 H        -0.374883         1.133016         0.277932
 H        -0.548612         0.100026        -0.951185
 H         2.384088         0.642950        -2.097259
 H         2.010896         2.094340        -1.055769
 H         4.460391         2.082387         0.383192
 H         2.238116         0.415603         2.206730
