19
Iteration:  4409charge 0 multiplicity 1
 C         4.362186        -1.718485         0.667922
 C         3.201235        -0.797480         0.264528
 O         1.932873        -1.418844        -0.305344
 C         1.411313        -0.051298        -0.131311
 C        -0.060009         0.062683        -0.075492
 C         2.210735         0.940396        -1.146203
 C         3.345436         0.727419        -0.127966
 O         4.589433         1.249632         0.094250
 C         2.462163         0.302166         1.077791
 H         3.876033        -2.589759         1.289951
 H         4.734532        -2.176959        -0.337413
 H         5.391822        -1.475865         1.052803
 H        -0.459665        -1.026100         0.243591
 H        -0.678305         0.731431         0.566326
 H        -0.467048         0.023256        -1.082891
 H         2.207685         0.626256        -2.176596
 H         1.822393         1.986667        -1.034637
 H         4.522554         1.712507         0.914662
 H         2.227666         0.874244         2.051059
