19
Iteration:  3171
 C         4.281115        -1.643405         0.659192
 C         3.169981        -0.841162         0.255072
 O         2.065684        -1.342390        -0.349762
 C         1.387931        -0.087303        -0.098428
 C        -0.117345         0.073843        -0.143313
 C         2.215575         0.952568        -1.001323
 C         3.332858         0.649694        -0.013040
 O         4.682375         1.168748        -0.018172
 C         2.387965         0.291462         1.076601
 H         4.169685        -2.450577         1.349728
 H         4.428468        -2.241984        -0.256418
 H         5.243887        -1.042033         0.820812
 H        -0.567163        -0.400294         0.735641
 H        -0.319134         1.101682        -0.057278
 H        -0.779771        -0.348769        -0.936171
 H         2.078644         0.590373        -2.009882
 H         1.775595         1.951193        -0.942983
 H         4.738382         1.904294         0.666286
 H         2.102272         0.522706         2.158007
