19
Iteration:  2744
 C         4.207934        -1.828135         0.825212
 C         3.179700        -0.857991         0.347231
 O         2.084259        -1.161850        -0.612571
 C         1.367566         0.068590        -0.189810
 C        -0.142063        -0.115545         0.072206
 C         2.229929         1.066360        -1.001292
 C         3.436917         0.695033        -0.089120
 O         4.645747         1.205332        -0.074409
 C         2.421746         0.171769         1.135722
 H         3.814988        -2.549105         1.585104
 H         4.536002        -2.468308        -0.023138
 H         5.085560        -1.394643         1.330185
 H        -0.291722        -0.952234         0.707533
 H        -0.637731         0.810278         0.385317
 H        -0.610264        -0.372070        -0.964109
 H         2.167858         0.793155        -2.118667
 H         1.910264         2.187666        -0.894098
 H         4.518662         2.188804         0.019112
 H         2.143686         0.227526         2.210860
