19
Iteration:  3217
 C         4.304669        -1.778917         0.609482
 C         3.161962        -0.848560         0.404591
 O         2.019702        -1.288641        -0.421624
 C         1.374091         0.089126        -0.105913
 C        -0.099633        -0.056789        -0.128841
 C         2.209491         0.998568        -0.963369
 C         3.380183         0.556072        -0.109629
 O         4.638344         1.204836         0.018874
 C         2.384351         0.343007         1.143253
 H         4.145816        -2.494624         1.464399
 H         4.766027        -2.488919        -0.064959
 H         5.093088        -1.107784         1.104682
 H        -0.662511        -0.601471         0.697130
 H        -0.572540         0.864928        -0.275868
 H        -0.601315        -0.650166        -1.017930
 H         2.322228         0.824890        -2.029874
 H         2.137095         2.077099        -0.917346
 H         4.504368         2.116472        -0.360774
 H         2.487804         0.730609         2.112821
