19
Iteration:  3134
 C         4.244767        -1.825723         0.766633
 C         3.179138        -0.895367         0.227260
 O         1.952593        -1.298995        -0.355218
 C         1.450484         0.119199        -0.101483
 C        -0.086655        -0.051618        -0.023931
 C         2.229339         0.979485        -1.102687
 C         3.431604         0.608848        -0.103421
 O         4.559568         1.309260         0.042082
 C         2.479009         0.228966         0.985660
 H         3.916164        -2.623140         1.493748
 H         4.743626        -2.212160        -0.162997
 H         4.999601        -1.201041         1.173850
 H        -0.444595        -0.883827         0.597069
 H        -0.388883         0.927251         0.574189
 H        -0.480599        -0.103544        -1.016194
 H         2.491989         0.711232        -2.202252
 H         1.910024         2.075588        -0.975564
 H         4.258034         2.227561         0.206358
 H         2.397364         0.512882         2.003221
