19
Iteration:  3724
 C         4.302905        -1.664779         0.653556
 C         3.183570        -0.763037         0.312886
 O         2.102374        -1.325728        -0.369454
 C         1.359635        -0.037014        -0.124563
 C        -0.063186        -0.047548        -0.083310
 C         2.217703         0.991452        -1.029968
 C         3.292024         0.642066        -0.063620
 O         4.603597         1.132020        -0.036421
 C         2.344791         0.269543         1.119443
 H         3.850623        -2.378028         1.308442
 H         4.671000        -2.183942        -0.215065
 H         5.180442        -1.178273         1.194653
 H        -0.601727        -0.476456         0.812460
 H        -0.258433         1.109363         0.068226
 H        -0.477039        -0.294673        -1.051371
 H         2.536300         0.844613        -2.075414
 H         2.014271         2.028527        -0.740075
 H         4.713419         2.100956         0.015725
 H         2.156016         0.392777         2.220640
