19
Iteration:   888
 C         4.354023        -1.816230         0.600492
 C         3.156557        -0.793385         0.315227
 O         2.094434        -1.418440        -0.463032
 C         1.399172        -0.033914        -0.184400
 C        -0.143868         0.060767         0.020543
 C         2.231745         1.047218        -0.994274
 C         3.339385         0.694343        -0.065525
 O         4.641328         1.265300         0.061719
 C         2.293614         0.188858         1.082145
 H         3.866580        -2.800458         0.956978
 H         5.009681        -2.031999        -0.227006
 H         5.093502        -1.390660         1.293571
 H        -0.510561        -0.935611         0.183313
 H        -0.308778         0.785269         0.865560
 H        -0.665968         0.371123        -0.872448
 H         2.319967         1.031110        -2.084922
 H         1.844857         2.060584        -0.817780
 H         4.589151         2.204626         0.242761
 H         2.154750         0.539621         2.047518
