19
Iteration:  3951
 C         4.283447        -1.879000         0.674189
 C         3.255250        -0.817493         0.293330
 O         2.051227        -1.298344        -0.310010
 C         1.455612        -0.027541        -0.158125
 C        -0.097151        -0.005541        -0.078566
 C         2.139293         0.977918        -1.045058
 C         3.369569         0.627706        -0.127887
 O         4.602725         1.286292         0.099843
 C         2.407148         0.339243         0.995375
 H         3.885657        -2.506596         1.486312
 H         4.394175        -2.550215        -0.224255
 H         5.209522        -1.277441         1.017109
 H        -0.368250        -0.484185         0.866833
 H        -0.524810         1.040300        -0.279792
 H        -0.529602        -0.716338        -0.800427
 H         2.008481         0.929981        -2.166226
 H         1.736493         1.984124        -0.644678
 H         4.442063         2.247349        -0.056204
 H         2.262904         0.504357         1.987625
