19
Iteration:   504charge 0 multiplicity 1
 C         4.247774        -1.861549         0.767006
 C         3.264701        -0.839118         0.287569
 O         2.065408        -1.334743        -0.547164
 C         1.425091         0.051248        -0.086707
 C        -0.058268        -0.071149        -0.034971
 C         2.031189         1.180563        -0.928839
 C         3.373175         0.689842        -0.148536
 O         4.650214         1.194280         0.038878
 C         2.418197         0.225876         0.981404
 H         3.796737        -2.664707         1.247268
 H         4.820048        -2.278121        -0.039274
 H         4.970130        -1.508701         1.486402
 H        -0.431581        -0.960803         0.497605
 H        -0.515345         0.699821         0.543639
 H        -0.328299        -0.057028        -1.132196
 H         1.942406         1.340220        -1.996110
 H         1.817777         2.118531        -0.327527
 H         4.450948         2.152738         0.224723
 H         2.341263         0.456130         2.033693
