19
Iteration:  1038
 C         4.340898        -1.862640         0.670262
 C         3.258558        -0.864621         0.227383
 O         1.929923        -1.237833        -0.494003
 C         1.408120         0.016110        -0.131322
 C        -0.097431        -0.104804        -0.005967
 C         2.121898         1.040074        -1.006240
 C         3.393590         0.709906        -0.088304
 O         4.578994         1.228860         0.196439
 C         2.508156         0.273727         0.952843
 H         3.930801        -2.751565         1.258591
 H         4.725848        -2.346720        -0.209470
 H         5.089791        -1.454349         1.319249
 H        -0.300353        -0.587651         0.980498
 H        -0.504371         1.010192        -0.010512
 H        -0.506924        -0.461000        -0.961821
 H         2.159083         0.815418        -2.067321
 H         1.858044         2.113707        -0.687190
 H         4.601301         2.185040         0.227873
 H         2.328276         0.689252         1.944382
