19
Iteration:  3859
 C         4.333928        -1.726373         0.816629
 C         3.213424        -0.764230         0.256566
 O         1.983034        -1.282366        -0.409882
 C         1.399111         0.002927        -0.050613
 C        -0.102845        -0.025665        -0.105302
 C         2.097821         1.011497        -1.007288
 C         3.398363         0.654603        -0.119393
 O         4.681674         1.188988        -0.054077
 C         2.409292         0.206039         1.055035
 H         3.861489        -2.620597         1.331850
 H         4.932897        -2.163516        -0.000171
 H         4.922784        -1.297073         1.587222
 H        -0.416287        -1.090495         0.173859
 H        -0.545227         0.731775         0.502211
 H        -0.373468        -0.048460        -1.212300
 H         1.936518         0.668312        -2.089859
 H         1.754847         2.054968        -0.809494
 H         4.686308         2.139298         0.032980
 H         2.349542         0.378025         2.214515
