19
Iteration:  2538charge 0 multiplicity 1
 C         4.222428        -1.925828         0.742913
 C         3.155756        -0.814791         0.327369
 O         2.127554        -1.184139        -0.526338
 C         1.420518         0.019194        -0.100530
 C        -0.066048        -0.020765        -0.020548
 C         2.198785         0.982728        -1.015012
 C         3.366105         0.670935         0.020838
 O         4.611390         1.253043        -0.132004
 C         2.357952         0.249108         1.151349
 H         3.859762        -2.640131         1.465298
 H         4.448333        -2.324829        -0.250915
 H         5.187857        -1.524369         1.170359
 H        -0.373059        -0.646321         0.752118
 H        -0.287540         1.020240         0.190602
 H        -0.521259        -0.494213        -0.995735
 H         2.329628         0.736996        -2.067454
 H         1.682383         1.861954        -0.825260
 H         4.489589         2.193070         0.055346
 H         2.230664         0.355863         2.214920
