19
Iteration:  4258charge 0 multiplicity 1
 C         4.254265        -1.755545         0.626203
 C         3.133983        -0.844802         0.425201
 O         2.111654        -1.329909        -0.393932
 C         1.389010        -0.000191        -0.177794
 C         0.007390         0.044411        -0.064007
 C         2.209351         0.829847        -1.044839
 C         3.339256         0.592316        -0.044365
 O         4.566605         1.322371        -0.057168
 C         2.351975         0.372569         1.097091
 H         4.086635        -2.868653         0.798973
 H         4.836773        -1.772775        -0.348739
 H         4.878322        -1.530018         1.477723
 H        -0.350818        -0.869394         0.574652
 H        -0.183372         1.063879         0.351768
 H        -0.595126         0.009506        -0.981792
 H         2.314784         0.660604        -2.139047
 H         1.892815         1.896755        -0.863492
 H         4.724652         1.681953         0.805704
 H         2.050660         0.550044         2.186312
