19
Iteration:   308charge 0 multiplicity 1
 C         4.166836        -1.869441         0.762224
 C         3.197271        -0.853156         0.218257
 O         1.961658        -1.250026        -0.558499
 C         1.440909         0.070740        -0.103333
 C        -0.041865        -0.133028         0.036214
 C         2.222094         1.129787        -0.977066
 C         3.400235         0.658150        -0.068807
 O         4.601627         1.327442         0.019440
 C         2.480820         0.159961         1.015885
 H         3.697537        -2.790375         1.226418
 H         4.707369        -2.243888        -0.083207
 H         4.958703        -1.436309         1.435173
 H        -0.255715        -0.958914         0.678149
 H        -0.462263         0.765595         0.334926
 H        -0.520898        -0.303481        -0.975243
 H         2.280506         0.827132        -1.985894
 H         1.957579         2.180713        -0.812234
 H         4.379431         2.180682         0.491562
 H         2.580442         0.152994         2.163548
