19
Iteration:  2099
 C         4.219763        -1.777026         0.674952
 C         3.211598        -0.764405         0.324931
 O         2.030602        -1.268119        -0.458002
 C         1.393571        -0.004408        -0.127074
 C        -0.131465        -0.054984        -0.100172
 C         2.287280         0.996933        -0.927843
 C         3.341804         0.641975         0.026930
 O         4.631921         1.191744        -0.147923
 C         2.412614         0.252071         1.138104
 H         3.751289        -2.566010         1.291666
 H         4.595061        -1.986854        -0.316202
 H         4.941290        -1.443603         1.372251
 H        -0.230636        -0.847810         0.640558
 H        -0.380328         0.958859         0.319959
 H        -0.644748        -0.330320        -1.068423
 H         2.289888         0.672795        -2.006539
 H         2.007837         1.990462        -0.599904
 H         4.711419         2.091365         0.256312
 H         2.269003         0.761407         2.138081
