19
Iteration:  2149
 C         4.347652        -1.709486         0.568130
 C         3.191032        -0.818039         0.318444
 O         1.972321        -1.270016        -0.343857
 C         1.371049        -0.077004        -0.079794
 C        -0.120389         0.064327        -0.081076
 C         2.270401         0.981156        -1.035275
 C         3.365727         0.531826        -0.130400
 O         4.582888         1.186581         0.084684
 C         2.432634         0.264307         1.059426
 H         4.096111        -2.447988         1.405375
 H         4.715047        -2.241657        -0.356468
 H         5.217094        -1.117327         1.063949
 H        -0.635772        -0.490933         0.836690
 H        -0.223682         1.118018         0.031270
 H        -0.428852        -0.150468        -1.071127
 H         2.329095         0.745081        -2.125667
 H         1.717074         1.993957        -0.923043
 H         4.271033         2.105896         0.239115
 H         2.491408         0.530146         2.075262
