19
Iteration:  2244charge 0 multiplicity 1
 C         4.149646        -1.778413         0.758950
 C         3.165844        -0.817026         0.296715
 O         2.033757        -1.325662        -0.433656
 C         1.455691        -0.007660        -0.086712
 C        -0.106870        -0.059873        -0.033946
 C         2.184300         1.068848        -0.945943
 C         3.439073         0.651951        -0.103317
 O         4.658460         1.259144        -0.073013
 C         2.475840         0.252438         1.025772
 H         3.557887        -2.539060         1.208911
 H         4.554966        -2.277801        -0.110940
 H         4.946709        -1.505748         1.480871
 H        -0.509788        -0.818525         0.637670
 H        -0.644060         0.900786         0.153374
 H        -0.222909        -0.258046        -1.173415
 H         2.146310         0.994244        -2.034690
 H         1.770004         2.036599        -0.680314
 H         4.478846         2.178457         0.063714
 H         2.422831         0.193299         2.078514
