19
Iteration:  4265charge 0 multiplicity 1
 C         4.235692        -1.782818         0.597644
 C         3.134268        -0.835234         0.377400
 O         2.126594        -1.278808        -0.383711
 C         1.448133        -0.056892        -0.158438
 C        -0.112813        -0.004884        -0.046436
 C         2.227964         0.899441        -1.074065
 C         3.326412         0.603499        -0.053043
 O         4.632478         1.315414        -0.047989
 C         2.372293         0.361430         1.107305
 H         3.965608        -2.771754         0.982684
 H         5.003384        -1.757690        -0.144695
 H         4.801444        -1.439780         1.589556
 H        -0.584486        -0.563237         0.741747
 H        -0.450751         0.993694         0.366072
 H        -0.510418        -0.227652        -1.038397
 H         2.157172         0.488546        -2.061181
 H         1.830964         1.888088        -0.931148
 H         4.861345         1.684302         0.831921
 H         1.933185         0.470880         2.017408
