19
Iteration:  1581
 C         4.259926        -1.798209         0.613124
 C         3.218712        -0.796625         0.264646
 O         2.032791        -1.284948        -0.334693
 C         1.392164         0.025036        -0.143544
 C        -0.186294        -0.038437        -0.044604
 C         2.206339         1.042060        -1.028784
 C         3.362480         0.731427        -0.085831
 O         4.617409         1.175180         0.111311
 C         2.471450         0.205828         1.038132
 H         4.121835        -2.484423         1.445892
 H         4.393273        -2.544417        -0.275615
 H         5.197703        -1.268054         0.883121
 H        -0.581310        -0.666128         0.716144
 H        -0.571872         0.983208        -0.208875
 H        -0.366141        -0.626834        -0.891381
 H         2.279060         0.726506        -2.039986
 H         1.886965         2.159605        -0.985563
 H         4.631373         2.147441         0.018079
 H         2.638561         0.439139         2.020662
