19
Iteration:  1133charge 0 multiplicity 1
 C         4.195100        -1.776270         0.641943
 C         3.235321        -0.812723         0.166265
 O         1.986499        -1.308091        -0.444228
 C         1.386004        -0.103946        -0.024752
 C        -0.042271        -0.039320        -0.146528
 C         2.121013         0.997143        -0.919790
 C         3.339229         0.764399        -0.095105
 O         4.679291         1.222312         0.091220
 C         2.519282         0.269303         1.096007
 H         3.790162        -2.561123         1.293543
 H         4.658492        -2.420260        -0.200065
 H         4.876811        -1.205032         1.258566
 H        -0.588066        -0.924983         0.246147
 H        -0.284328         0.853487         0.348551
 H        -0.251901         0.248004        -1.183203
 H         2.095136         0.665137        -1.964646
 H         1.703007         1.977741        -0.702102
 H         4.619958         2.212274         0.137617
 H         2.418343         0.503855         2.255680
