19
Iteration:  3304charge 0 multiplicity 1
 C         4.254650        -1.812512         0.850397
 C         3.204017        -0.864427         0.319485
 O         1.976318        -1.363181        -0.474145
 C         1.440833        -0.005358        -0.162433
 C        -0.095558         0.055877         0.032974
 C         2.224285         0.977751        -1.038836
 C         3.348754         0.690099        -0.144339
 O         4.591704         1.302081        -0.014779
 C         2.466980         0.214942         0.947051
 H         3.699871        -2.594650         1.397693
 H         4.761938        -2.135012        -0.084673
 H         4.923636        -1.215277         1.526841
 H        -0.318363        -0.880448         0.528234
 H        -0.499335         0.824060         0.584367
 H        -0.502527         0.087164        -1.040156
 H         2.347156         0.748647        -2.107187
 H         1.983523         2.072274        -0.792743
 H         4.826375         2.010480         0.663166
 H         2.291424         0.543151         1.944122
