19
Iteration:  4966charge 0 multiplicity 1
 C         4.165867        -1.883392         0.649872
 C         3.169724        -0.877805         0.300167
 O         2.093408        -1.231138        -0.494519
 C         1.447750        -0.025507        -0.044566
 C        -0.125285        -0.089568        -0.144975
 C         2.169098         1.062893        -0.951617
 C         3.367746         0.716165        -0.030439
 O         4.593188         1.345896         0.012500
 C         2.494500         0.265085         1.154031
 H         3.924063        -2.149800         1.721589
 H         4.140625        -2.700143        -0.022149
 H         5.129204        -1.485652         0.624325
 H        -0.536268        -0.917820         0.435408
 H        -0.659239         0.755904         0.412142
 H        -0.551851        -0.035495        -1.247617
 H         2.247853         0.843079        -2.035629
 H         1.854581         2.043905        -0.714577
 H         5.329786         0.834295        -0.385366
 H         2.594532         0.535250         2.194600
