19
Iteration:  2169
 C         4.354050        -1.796058         0.605114
 C         3.121685        -0.833801         0.375853
 O         2.055431        -1.426016        -0.405197
 C         1.400988         0.063443        -0.174672
 C        -0.141803         0.098996         0.000219
 C         2.234990         0.963441        -1.076540
 C         3.339260         0.726636        -0.001357
 O         4.618554         1.225745         0.001834
 C         2.364739         0.209751         1.065926
 H         4.195094        -2.486232         1.405546
 H         4.477698        -2.266951        -0.365845
 H         5.272817        -1.234056         0.953081
 H        -0.335895        -0.615307         0.826040
 H        -0.479698         1.088374         0.216948
 H        -0.578824        -0.299647        -0.934525
 H         2.463948         0.667426        -2.057929
 H         2.083433         2.071096        -1.081535
 H         4.721453         2.143668         0.396351
 H         2.038042         0.503466         2.019641
