19
Iteration:  4476charge 0 multiplicity 1
 C         4.187815        -1.704538         0.803872
 C         3.183470        -0.911960         0.267493
 O         2.024559        -1.290096        -0.480699
 C         1.454672        -0.044235        -0.058829
 C        -0.073931        -0.093401        -0.078052
 C         2.198395         1.121523        -0.986401
 C         3.375439         0.669380        -0.133480
 O         4.646008         1.269278        -0.013415
 C         2.449272         0.169903         1.105306
 H         3.635002        -2.563237         1.353862
 H         4.864097        -2.029063        -0.097151
 H         4.770755        -1.209382         1.561032
 H        -0.538122        -0.560061         0.865624
 H        -0.381349         0.961902        -0.066045
 H        -0.538147        -0.544929        -1.030397
 H         2.122284         1.095744        -2.077321
 H         1.666166         2.007262        -0.599921
 H         4.729864         1.953214        -0.728721
 H         2.375589         0.301741         2.143438
