19
Iteration:  3111
 C         4.090697        -1.834038         0.773194
 C         3.176686        -0.768338         0.281566
 O         2.043750        -1.367358        -0.503925
 C         1.468438        -0.069777        -0.115606
 C        -0.113227        -0.044483         0.009426
 C         2.207272         0.973145        -1.058448
 C         3.444414         0.706802        -0.054408
 O         4.701309         1.360494        -0.034048
 C         2.428627         0.274279         1.094871
 H         3.405984        -2.619766         1.212237
 H         4.569446        -2.223660        -0.162803
 H         4.871523        -1.562838         1.465953
 H        -0.485174        -0.881011         0.663349
 H        -0.310538         0.846968         0.771793
 H        -0.702662        -0.075477        -0.934678
 H         2.279270         0.478745        -2.128172
 H         1.872954         2.057798        -1.036639
 H         4.459016         2.323879        -0.076890
 H         2.424522         0.478663         2.119093
