19
Iteration:  1956charge 0 multiplicity 1
 C         4.402443        -1.786398         0.550492
 C         3.195690        -0.832206         0.289717
 O         1.933799        -1.321282        -0.313223
 C         1.360114         0.004909        -0.038961
 C        -0.128195         0.003247        -0.140207
 C         2.225585         1.061977        -1.053361
 C         3.283629         0.701888        -0.096074
 O         4.601562         1.148066         0.086327
 C         2.495834         0.312865         1.118878
 H         4.166209        -2.669078         1.347647
 H         4.679682        -2.328193        -0.392030
 H         5.315110        -1.432114         1.000101
 H        -0.694355        -0.914665         0.451283
 H        -0.671306         0.957377        -0.047965
 H        -0.321665        -0.408848        -1.149852
 H         2.444663         0.570642        -2.059799
 H         1.914133         2.097919        -0.962121
 H         4.629626         2.128510         0.334242
 H         2.675642         0.737208         2.010078
