19
Iteration:   191
 C         4.289226        -1.810878         0.622217
 C         3.208765        -0.852820         0.329717
 O         2.054581        -1.270219        -0.553935
 C         1.400114        -0.064232        -0.089432
 C        -0.101810        -0.003088        -0.094029
 C         2.205359         1.045304        -0.964974
 C         3.278313         0.788964         0.050365
 O         4.600155         1.251874         0.047072
 C         2.409707         0.220967         1.177031
 H         4.129931        -2.695878         1.314324
 H         4.741693        -2.282768        -0.288725
 H         5.191722        -1.327205         1.104410
 H        -0.558420        -0.864111         0.461590
 H        -0.442747         1.056391         0.187994
 H        -0.411904        -0.119643        -1.171529
 H         2.342150         0.865012        -2.094384
 H         1.785000         2.074252        -0.824741
 H         4.963671         0.734504        -0.724505
 H         2.234642         0.532717         2.239839
