19
Iteration:  3806charge 0 multiplicity 1
 C         4.199224        -1.911693         0.750656
 C         3.176841        -0.810815         0.408774
 O         2.136894        -1.285122        -0.415892
 C         1.430178        -0.064036        -0.072883
 C        -0.077428        -0.029066        -0.014377
 C         2.180737         1.019724        -1.045262
 C         3.376817         0.741332        -0.120425
 O         4.640373         1.314410        -0.064889
 C         2.350837         0.243572         1.003717
 H         3.746557        -2.684517         1.457338
 H         4.381840        -2.434265        -0.227118
 H         5.130585        -1.508151         1.173519
 H        -0.277664        -0.742051         0.741164
 H        -0.382769         0.949206         0.120522
 H        -0.498684        -0.518414        -0.953574
 H         2.276622         0.897085        -2.164739
 H         1.784416         2.069487        -0.954858
 H         4.557559         2.264402        -0.008079
 H         1.937508         0.535424         2.044278
