19
Iteration:  2083charge 0 multiplicity 1
 C         4.139442        -1.818357         0.717636
 C         3.087819        -0.864617         0.401200
 O         2.140076        -1.269917        -0.511622
 C         1.426341         0.073427        -0.113158
 C        -0.018815        -0.080653         0.010633
 C         2.207198         1.060859        -0.953258
 C         3.353328         0.661664        -0.062501
 O         4.653085         1.210867        -0.151523
 C         2.372297         0.267914         1.109696
 H         3.785792        -2.752925         1.177587
 H         4.759690        -2.192575        -0.128432
 H         4.929603        -1.316611         1.399065
 H        -0.406746        -0.937539         0.639719
 H        -0.608694         0.743337         0.320117
 H        -0.320671        -0.195947        -1.014681
 H         2.420529         0.903805        -2.011748
 H         1.773219         2.104888        -0.934632
 H         4.681577         2.125851         0.124858
 H         2.218701         0.422866         2.167554
