19
Iteration:  1294
 C         4.240128        -1.739270         0.618923
 C         3.175460        -0.798891         0.360921
 O         2.086015        -1.248030        -0.460008
 C         1.384201        -0.043421        -0.050901
 C        -0.111944        -0.013468        -0.079252
 C         2.161906         1.024322        -1.028534
 C         3.380947         0.693951        -0.094373
 O         4.676367         1.145686         0.045635
 C         2.413946         0.203376         1.126384
 H         3.991361        -2.667468         0.972180
 H         4.823484        -1.940427        -0.285053
 H         4.958394        -1.247333         1.227482
 H        -0.509646        -1.026664         0.159266
 H        -0.702194         0.540631         0.569279
 H        -0.530911         0.377168        -1.035417
 H         2.074302         0.768839        -2.141001
 H         1.881898         2.002258        -0.759239
 H         4.605909         2.113015        -0.040365
 H         2.211037         0.358218         2.186819
