19
Iteration:  3359charge 0 multiplicity 1
 C         4.343705        -1.774390         0.622113
 C         3.164800        -0.919559         0.333955
 O         2.021773        -1.304064        -0.390121
 C         1.371430         0.017464        -0.077380
 C        -0.123781        -0.003558        -0.147205
 C         2.263121         1.019343        -1.028594
 C         3.312771         0.615940         0.044263
 O         4.674658         1.177693        -0.017150
 C         2.305166         0.348428         1.157067
 H         4.325574        -2.598945         1.404469
 H         4.614610        -2.306860        -0.332381
 H         5.036534        -1.008770         0.982879
 H        -0.359342        -0.603687         0.717479
 H        -0.467175         0.933709        -0.195267
 H        -0.476484        -0.566277        -1.070540
 H         2.389081         0.885275        -2.143032
 H         2.076805         2.134173        -1.090410
 H         4.547780         2.140195        -0.282642
 H         2.251676         0.924061         2.142329
