19
Iteration:  4038charge 0 multiplicity 1
 C         4.256480        -1.646153         0.740041
 C         3.176896        -0.805621         0.303842
 O         2.033630        -1.410610        -0.394278
 C         1.392480        -0.063996        -0.201014
 C        -0.111569        -0.043554        -0.094040
 C         2.192178         0.992314        -0.959325
 C         3.388256         0.664559        -0.099643
 O         4.632702         1.175222         0.040323
 C         2.451007         0.345349         1.018040
 H         3.841045        -2.570954         1.107887
 H         4.892540        -1.991557        -0.085994
 H         5.165723        -1.308502         1.324465
 H        -0.547974        -0.864761         0.478744
 H        -0.343934         0.829584         0.636475
 H        -0.738627         0.252687        -0.922770
 H         2.090950         0.821129        -2.072948
 H         1.768286         2.060877        -0.788163
 H         4.422732         2.107835         0.014400
 H         2.573017         0.667917         1.933842
