19
Iteration:   796
 C         4.240444        -1.812515         0.518200
 C         3.224660        -0.798601         0.276743
 O         2.067637        -1.286033        -0.452817
 C         1.385976         0.074683        -0.095190
 C        -0.100994        -0.134858        -0.039226
 C         2.273628         1.092703        -0.899273
 C         3.360641         0.688102        -0.029484
 O         4.605240         1.191792         0.066130
 C         2.356787         0.261895         1.056138
 H         3.952824        -2.380971         1.326982
 H         4.438382        -2.545885        -0.280119
 H         5.188423        -1.338847         0.683680
 H        -0.305900        -0.502960         0.985901
 H        -0.673655         0.696760        -0.384746
 H        -0.270343        -1.015791        -0.740197
 H         2.330590         1.008997        -1.961789
 H         1.978022         2.143067        -0.780560
 H         4.406537         2.152257         0.216981
 H         2.029617         0.399037         2.125984
