19
Iteration:  4582
 C         4.350738        -1.719098         0.632743
 C         3.133103        -0.897776         0.257380
 O         2.092650        -1.450322        -0.439452
 C         1.385163         0.139489        -0.086023
 C        -0.070196         0.117037        -0.023262
 C         2.173072         0.908078        -1.037191
 C         3.280877         0.631638        -0.078624
 O         4.525252         1.330152         0.037636
 C         2.462394         0.230141         1.073005
 H         4.137294        -2.417719         1.521204
 H         4.787036        -2.292114        -0.108447
 H         5.083071        -0.937291         0.981073
 H        -0.600328        -0.834934         0.386808
 H        -0.533670         0.965650         0.510791
 H        -0.459876         0.268996        -0.968245
 H         2.288667         0.582600        -2.094831
 H         2.018161         2.025446        -0.997993
 H         5.069060         0.769086         0.682970
 H         2.467429         0.443500         2.113334
