19
Iteration:  3641charge 0 multiplicity 1
 C         4.184341        -1.831747         0.787743
 C         3.221174        -0.810144         0.314205
 O         2.038482        -1.283037        -0.466016
 C         1.449517        -0.144756        -0.131759
 C        -0.081580        -0.025786         0.002741
 C         2.146201         0.962498        -1.051101
 C         3.366812         0.670641        -0.114830
 O         4.668476         1.328478        -0.051231
 C         2.419604         0.324110         1.058148
 H         3.834445        -2.653143         1.461302
 H         4.672454        -2.240141        -0.120539
 H         4.905254        -1.265824         1.377668
 H        -0.685079        -0.806263         0.495712
 H        -0.232177         0.907482         0.435659
 H        -0.682353         0.022063        -0.990703
 H         2.456856         0.711930        -2.076457
 H         1.719161         1.963631        -1.053283
 H         4.705812         1.929788         0.744540
 H         2.257077         0.529011         2.070288
