19
Iteration:  1199
 C         4.182534        -1.820290         0.655182
 C         3.199765        -0.820783         0.289914
 O         2.012424        -1.310736        -0.510307
 C         1.435321         0.019028        -0.147077
 C        -0.049775        -0.071030         0.035282
 C         2.217553         1.082330        -1.080687
 C         3.394348         0.760482        -0.086431
 O         4.605992         1.282544         0.085282
 C         2.427917         0.160328         1.073188
 H         3.765738        -2.549206         1.402540
 H         4.451164        -2.461815        -0.277491
 H         5.104937        -1.399942         1.036712
 H        -0.230455        -0.283735         1.092488
 H        -0.699380         0.771068        -0.177608
 H        -0.497151        -0.792712        -0.597653
 H         2.331812         0.805729        -2.109782
 H         2.050859         2.174125        -0.983868
 H         4.579337         1.848316         0.858117
 H         2.289425         0.186381         2.135597
