19
Iteration:  3909charge 0 multiplicity 1
 C         4.392423        -1.742117         0.630906
 C         3.104586        -0.770510         0.331891
 O         1.970028        -1.310308        -0.361306
 C         1.390320         0.072771        -0.156468
 C        -0.064092        -0.010781        -0.062499
 C         2.245358         0.855713        -1.064848
 C         3.375170         0.631481        -0.069146
 O         4.613749         1.279586        -0.005862
 C         2.316536         0.231741         1.073533
 H         4.187776        -2.565661         1.291700
 H         4.871481        -2.070125        -0.320750
 H         5.022549        -1.130632         1.324437
 H        -0.380690        -0.546240         0.853918
 H        -0.265729         1.088232         0.296887
 H        -0.469870        -0.378995        -0.934428
 H         2.496087         0.318415        -1.947906
 H         1.997728         1.891593        -1.126689
 H         4.659012         2.015428         0.680068
 H         2.142168         0.214044         2.010765
