19
Iteration:  1977charge 0 multiplicity 1
 C         4.279907        -1.715338         0.485326
 C         3.171492        -0.843010         0.352783
 O         1.985302        -1.300845        -0.303745
 C         1.409989         0.006344        -0.095339
 C        -0.066550         0.055833        -0.161189
 C         2.193836         0.889330        -1.006582
 C         3.380663         0.633806        -0.046709
 O         4.657911         1.253988         0.029086
 C         2.381609         0.254820         1.099683
 H         4.103247        -2.469065         1.340002
 H         4.561111        -2.267938        -0.423843
 H         5.097665        -1.070176         0.808053
 H        -0.457500        -0.704140         0.697276
 H        -0.375830         1.087338         0.037021
 H        -0.473223        -0.373536        -1.067991
 H         2.126807         0.489114        -2.058431
 H         1.934001         1.921332        -0.776854
 H         4.772097         1.917381         0.699805
 H         2.140182         0.401173         2.064631
