19
Iteration:   708charge 0 multiplicity 1
 C         4.306450        -1.853461         0.646409
 C         3.157783        -0.841554         0.289107
 O         2.033018        -1.275415        -0.500311
 C         1.425661         0.019344        -0.059884
 C        -0.142706        -0.009780        -0.047340
 C         2.150286         0.937553        -0.987830
 C         3.430327         0.662015        -0.022501
 O         4.657389         1.365131         0.006375
 C         2.397896         0.181198         1.089075
 H         3.979386        -2.760684         0.969876
 H         4.913478        -2.030561        -0.277450
 H         4.937320        -1.345922         1.402547
 H        -0.565954        -0.956531         0.219137
 H        -0.545648         0.678418         0.645183
 H        -0.581210         0.459032        -0.952636
 H         2.237420         0.538700        -1.972391
 H         1.947604         1.997129        -0.886559
 H         4.458524         2.310489         0.199770
 H         2.199353         0.095514         2.127517
