19
Iteration:   193charge 0 multiplicity 1
 C         4.295755        -1.795145         0.604675
 C         3.201319        -0.870663         0.347875
 O         2.052263        -1.279607        -0.547256
 C         1.406323        -0.065014        -0.083892
 C        -0.088851        -0.005371        -0.099968
 C         2.212180         1.051080        -0.968804
 C         3.274518         0.760400         0.052208
 O         4.605393         1.270186         0.040365
 C         2.375653         0.226169         1.182818
 H         4.126440        -2.662625         1.302938
 H         4.771418        -2.354584        -0.353173
 H         5.131002        -1.279373         1.090207
 H        -0.589758        -0.864810         0.496415
 H        -0.454260         1.114730         0.183011
 H        -0.387179        -0.085857        -1.162554
 H         2.352571         0.922267        -2.112865
 H         1.872303         2.083150        -0.787388
 H         4.964068         0.696662        -0.697639
 H         2.295055         0.533285         2.197916
