19
Iteration:   860
 C         4.259858        -1.825437         0.673748
 C         3.169224        -0.872638         0.192899
 O         1.953340        -1.241090        -0.487524
 C         1.422630         0.007649        -0.029710
 C        -0.084312        -0.010107        -0.068336
 C         2.211085         1.003732        -0.922934
 C         3.411811         0.616475        -0.160478
 O         4.592208         1.363189         0.061676
 C         2.516046         0.108266         1.087998
 H         3.822912        -2.614006         1.197268
 H         5.077585        -2.126237        -0.020330
 H         4.725973        -1.187891         1.467643
 H        -0.414313        -0.998948         0.291711
 H        -0.534737         0.792153         0.459951
 H        -0.399718        -0.109800        -1.150886
 H         2.154697         0.784175        -2.021556
 H         1.862493         2.023667        -0.693935
 H         4.309700         2.254749         0.315798
 H         2.522514         0.456549         2.143507
