19
Iteration:  4328
 C         4.267169        -1.752456         0.786194
 C         3.221872        -0.799302         0.331482
 O         2.084968        -1.307353        -0.551514
 C         1.375876        -0.015325        -0.153895
 C        -0.152234        -0.060938        -0.055636
 C         2.170487         1.056892        -0.920643
 C         3.416861         0.632335        -0.084267
 O         4.661056         1.237107        -0.024089
 C         2.380577         0.228310         1.106487
 H         3.801459        -2.433482         1.464407
 H         4.395875        -2.387662        -0.043258
 H         5.190451        -1.367643         1.219639
 H        -0.395191        -0.507788         0.847908
 H        -0.701686         0.875506        -0.188753
 H        -0.545490        -0.763279        -0.818228
 H         2.056379         0.948677        -2.031627
 H         1.831177         2.057350        -0.650937
 H         4.529591         2.140698        -0.320053
 H         2.472164         0.648234         2.068589
