19
Iteration:  4846
 C         4.278765        -1.855606         0.788315
 C         3.190754        -0.873393         0.211079
 O         2.051299        -1.253034        -0.520212
 C         1.411055        -0.045472        -0.098775
 C        -0.130374         0.014593         0.071035
 C         2.227437         1.026477        -0.968372
 C         3.384650         0.612992        -0.075290
 O         4.544863         1.397402         0.004230
 C         2.428792         0.230172         1.000573
 H         3.733981        -2.846293         0.981331
 H         4.903304        -2.089926        -0.133352
 H         4.893648        -1.494936         1.569338
 H        -0.382422        -0.756982         0.753004
 H        -0.606565         0.962306         0.295477
 H        -0.419335        -0.305360        -0.984030
 H         2.210276         0.967994        -2.061814
 H         1.820946         1.954450        -0.631886
 H         5.324222         0.845562        -0.174030
 H         2.219113         0.709100         1.954339
