19
Iteration:  2050
 C         4.159713        -1.806901         0.757953
 C         3.205058        -0.841478         0.173218
 O         2.039752        -1.298981        -0.479556
 C         1.350386         0.019569        -0.152130
 C        -0.159527        -0.073692         0.056115
 C         2.229412         1.030822        -0.955590
 C         3.358533         0.651657        -0.120593
 O         4.692712         1.260971         0.025504
 C         2.499736         0.265133         1.004588
 H         3.565048        -2.416891         1.411779
 H         4.826182        -2.370845         0.080940
 H         4.714512        -1.171490         1.546401
 H        -0.364717        -0.954833         0.666052
 H        -0.524410         0.871491         0.386227
 H        -0.468798        -0.319992        -0.951205
 H         2.392781         0.810669        -1.988167
 H         1.837935         2.039668        -0.626823
 H         4.629824         2.216968        -0.043301
 H         2.686047         0.523322         2.069654
