19
Iteration:  2520
 C         4.236492        -1.794962         0.661437
 C         3.207025        -0.809628         0.305345
 O         1.968988        -1.372566        -0.381365
 C         1.421692         0.000960        -0.092899
 C        -0.107885         0.018341        -0.055141
 C         2.225240         1.064191        -0.994386
 C         3.362910         0.682373        -0.103620
 O         4.642860         1.273289         0.002811
 C         2.467780         0.158652         1.037359
 H         3.661738        -2.571280         1.252561
 H         4.825306        -2.284454        -0.148200
 H         4.915548        -1.329420         1.332239
 H        -0.405321        -0.641279         0.808606
 H        -0.530596         1.008525         0.075671
 H        -0.484704        -0.405040        -0.953133
 H         2.243219         0.668390        -2.053041
 H         2.037221         2.193208        -0.870047
 H         4.632691         2.228625        -0.074940
 H         2.288829         0.441779         2.048588
