19
Iteration:  3125charge 0 multiplicity 1
 C         4.170701        -1.808327         0.718251
 C         3.171498        -0.841532         0.268797
 O         1.965846        -1.303508        -0.395883
 C         1.376455         0.024032        -0.160439
 C        -0.048369        -0.024425         0.026353
 C         2.290614         0.898104        -1.033030
 C         3.401033         0.651788        -0.120855
 O         4.613672         1.355315         0.030453
 C         2.497174         0.245879         0.999796
 H         3.683223        -2.561883         1.389693
 H         4.745866        -2.432665        -0.022713
 H         4.808652        -1.194424         1.341139
 H        -0.256439        -0.984581         0.443551
 H        -0.560843         0.870828         0.542646
 H        -0.488962        -0.099590        -0.915075
 H         2.420891         0.720140        -2.141300
 H         1.883636         1.949163        -0.890770
 H         4.439108         2.315357         0.072707
 H         2.475607         0.406778         2.095791
