19
Iteration:  2143
 C         4.369584        -1.703581         0.561682
 C         3.128923        -0.819715         0.301963
 O         1.944973        -1.327262        -0.357163
 C         1.401039        -0.022729        -0.091642
 C        -0.103191         0.065231        -0.086716
 C         2.155765         0.935604        -0.992908
 C         3.416040         0.595020        -0.125332
 O         4.590180         1.182387         0.103028
 C         2.502408         0.252753         1.057831
 H         3.952002        -2.304507         1.377356
 H         4.728214        -2.211144        -0.313832
 H         5.060471        -1.141723         1.110356
 H        -0.652164        -0.543096         0.572161
 H        -0.225000         1.192305        -0.002837
 H        -0.400449        -0.309067        -1.129013
 H         2.331653         0.643226        -2.055361
 H         1.991121         1.974905        -0.782452
 H         4.362984         2.153663         0.186839
 H         2.569560         0.784977         2.067544
