19
Iteration:  1760charge 0 multiplicity 1
 C         4.360584        -1.721644         0.687860
 C         3.122358        -0.842190         0.343602
 O         1.967624        -1.333633        -0.427537
 C         1.397202         0.099463        -0.133288
 C        -0.118137        -0.008074        -0.119963
 C         2.146719         1.043046        -0.932871
 C         3.424336         0.682257        -0.142002
 O         4.647367         1.147664         0.046168
 C         2.460162         0.181939         1.060987
 H         4.129333        -2.509188         1.496066
 H         4.789156        -2.394718        -0.064742
 H         5.198205        -1.034499         0.771421
 H        -0.526060        -0.580129         0.759464
 H        -0.711878         0.895967        -0.159074
 H        -0.447272        -0.478905        -1.054862
 H         2.006240         0.760614        -2.036115
 H         1.697601         1.993469        -0.674898
 H         4.603447         2.102583         0.325994
 H         2.633956         0.561141         2.025482
