19
Iteration:  1282
 C         4.295402        -1.713408         0.569005
 C         3.140977        -0.760562         0.345625
 O         2.061746        -1.282865        -0.486607
 C         1.388918        -0.004677        -0.072096
 C        -0.132714        -0.017033        -0.091445
 C         2.219228         0.940360        -0.888301
 C         3.365573         0.673497         0.020131
 O         4.704010         1.172186        -0.031856
 C         2.299417         0.237810         1.131530
 H         3.904189        -2.636975         0.963006
 H         4.627602        -1.865733        -0.456154
 H         5.029709        -1.364486         1.314507
 H        -0.533003        -1.030947         0.051691
 H        -0.263119         0.737820         0.615257
 H        -0.449914         0.201926        -1.148828
 H         2.448117         0.591992        -1.968816
 H         1.769699         1.896543        -0.953482
 H         4.789871         2.158526        -0.095281
 H         2.235348         0.371692         2.262456
