19
Iteration:  4326charge 0 multiplicity 1
 C         4.270686        -1.746857         0.805726
 C         3.197460        -0.806077         0.326891
 O         2.082154        -1.302443        -0.554488
 C         1.394172        -0.017467        -0.130924
 C        -0.153587        -0.066686        -0.044256
 C         2.178174         1.060218        -0.919755
 C         3.404199         0.622537        -0.106814
 O         4.674112         1.242899        -0.019104
 C         2.371678         0.224529         1.092241
 H         3.760836        -2.477958         1.394770
 H         4.400209        -2.388694        -0.088601
 H         5.152995        -1.304343         1.173598
 H        -0.437382        -0.551588         0.855196
 H        -0.625643         0.879782        -0.249570
 H        -0.515234        -0.795519        -0.840587
 H         2.046500         0.944699        -2.030709
 H         1.863095         2.070112        -0.608488
 H         4.527091         2.187455        -0.291267
 H         2.512118         0.707009         2.041911
