19
Iteration:   631
 C         4.180326        -1.778439         0.650882
 C         3.165673        -0.823878         0.215489
 O         2.126654        -1.249064        -0.572853
 C         1.421963        -0.035318        -0.104776
 C        -0.189149        -0.086816         0.008963
 C         2.319934         1.084112        -0.877262
 C         3.347327         0.733025         0.043671
 O         4.603632         1.216152        -0.063969
 C         2.400169         0.201458         1.100935
 H         3.782840        -2.404287         1.369808
 H         4.667787        -2.419172        -0.149747
 H         5.079669        -1.185538         1.057941
 H        -0.435724        -0.682478         0.835305
 H        -0.591013         0.879490         0.006428
 H        -0.656228        -0.672432        -0.829810
 H         2.464456         0.823709        -1.914373
 H         1.943292         2.100409        -0.925185
 H         4.746001         1.976418         0.494970
 H         2.292955         0.146737         2.238331
