19
Iteration:  4491charge 0 multiplicity 1
 C         4.169629        -1.782454         0.786151
 C         3.193543        -0.777759         0.240126
 O         2.036905        -1.371266        -0.483584
 C         1.350375         0.009118        -0.077268
 C        -0.122759        -0.081724        -0.088514
 C         2.138708         1.040993        -0.846668
 C         3.424647         0.652362        -0.133843
 O         4.674603         1.315848         0.024808
 C         2.489575         0.249469         1.033735
 H         3.683251        -2.610495         1.247199
 H         4.760282        -2.265265        -0.084967
 H         4.909043        -1.334463         1.505627
 H        -0.470164        -0.622755         0.743666
 H        -0.659902         0.874939        -0.317518
 H        -0.219301        -0.779221        -0.991564
 H         2.167932         1.024808        -1.967790
 H         1.909975         2.069384        -0.552307
 H         4.869770         1.752430        -0.840907
 H         2.671307         0.621765         2.095814
