19
Iteration:  3055
 C         4.208541        -1.717831         0.750262
 C         3.103846        -0.893819         0.261676
 O         1.958390        -1.301431        -0.414323
 C         1.439382         0.021126        -0.049298
 C        -0.154844        -0.059266        -0.084698
 C         2.246623         1.060983        -0.939732
 C         3.463830         0.669002        -0.103113
 O         4.706871         1.227309        -0.064821
 C         2.456867         0.216134         1.010158
 H         3.895968        -2.550883         1.393460
 H         4.832248        -2.147070        -0.024310
 H         4.750320        -0.921081         1.385581
 H        -0.354763        -0.919695         0.672883
 H        -0.783934         0.871025         0.004096
 H        -0.478177        -0.687938        -1.031119
 H         2.138487         0.994008        -2.128031
 H         1.911893         2.111891        -0.645838
 H         4.641217         2.185028         0.229447
 H         2.366823         0.255681         2.120218
