19
Iteration:  4795charge 0 multiplicity 1
 C         4.221082        -1.899770         0.667093
 C         3.154474        -0.764670         0.264181
 O         2.034581        -1.244639        -0.397812
 C         1.392565         0.020394        -0.136130
 C        -0.129276        -0.190981        -0.107468
 C         2.172024         1.033807        -0.948674
 C         3.398872         0.691558        -0.036069
 O         4.634665         1.308612         0.004146
 C         2.462088         0.349767         1.196666
 H         3.824008        -2.503890         1.430267
 H         4.284979        -2.628768        -0.184620
 H         5.213117        -1.442001         0.830454
 H        -0.225081        -1.236910         0.077152
 H        -0.629309         0.435192         0.615833
 H        -0.491096         0.090106        -1.157006
 H         2.199263         0.764553        -2.054481
 H         2.014051         2.132136        -0.860471
 H         5.204155         1.194076        -0.825465
 H         2.563976         0.864409         2.100323
