19
Iteration:  4785
 C         4.212483        -1.852110         0.640805
 C         3.220800        -0.873934         0.347268
 O         2.074117        -1.235393        -0.373694
 C         1.318906         0.034426        -0.167470
 C        -0.151077        -0.121478        -0.134823
 C         2.199048         1.054042        -1.012336
 C         3.348356         0.597739        -0.058473
 O         4.612044         1.330229         0.035843
 C         2.537423         0.335992         1.180522
 H         4.145153        -2.322349         1.565302
 H         4.357194        -2.546462        -0.183637
 H         5.223127        -1.369589         0.748412
 H        -0.532759        -1.134163         0.116517
 H        -0.613804         0.517588         0.624573
 H        -0.706620         0.077075        -1.096179
 H         2.199006         0.915467        -2.128682
 H         1.784715         2.038948        -0.678058
 H         5.094443         1.158389        -0.828762
 H         2.570984         0.623719         2.187052
