19
Iteration:  2097
 C         4.208426        -1.784185         0.681249
 C         3.191835        -0.768319         0.323070
 O         2.049197        -1.271508        -0.469713
 C         1.401048         0.003662        -0.119301
 C        -0.126840        -0.045975        -0.101663
 C         2.286025         0.996692        -0.927459
 C         3.355727         0.646696         0.038770
 O         4.625000         1.187162        -0.158038
 C         2.403513         0.258462         1.140546
 H         3.736794        -2.605228         1.283874
 H         4.580370        -1.966867        -0.323326
 H         4.945561        -1.397630         1.384437
 H        -0.196764        -0.911624         0.663930
 H        -0.384806         0.913482         0.335157
 H        -0.611694        -0.345361        -1.001980
 H         2.323990         0.677520        -2.023755
 H         1.930335         1.993272        -0.583464
 H         4.663537         2.093999         0.268647
 H         2.321310         0.774123         2.068217
