19
Iteration:  3756charge 0 multiplicity 1
 C         4.360802        -1.747373         0.693543
 C         3.089295        -0.911914         0.334485
 O         1.976161        -1.396622        -0.393884
 C         1.299898         0.110426        -0.062151
 C        -0.126602        -0.020848        -0.056124
 C         2.193001         0.945316        -1.061031
 C         3.459681         0.622633        -0.091166
 O         4.661470         1.330595        -0.002333
 C         2.443477         0.269859         1.011599
 H         4.103911        -2.438777         1.451161
 H         4.787623        -2.326824        -0.101138
 H         5.203137        -1.022538         0.976468
 H        -0.456041        -0.566515         0.903022
 H        -0.486526         1.095565        -0.330163
 H        -0.268584        -0.565160        -1.009652
 H         2.216448         0.788444        -2.141112
 H         2.107085         2.038040        -1.001021
 H         4.512059         2.003584         0.713679
 H         2.172139         0.393050         2.105636
