19
Iteration:  2028charge 0 multiplicity 1
 C         4.235831        -1.785550         0.757816
 C         3.215390        -0.825861         0.282366
 O         1.972760        -1.297067        -0.497655
 C         1.428563         0.029833        -0.088793
 C        -0.038944         0.004240         0.006574
 C         2.162375         1.028693        -1.054904
 C         3.392841         0.594183        -0.164275
 O         4.640498         1.278854         0.040935
 C         2.422122         0.174045         1.043236
 H         3.880655        -2.503772         1.458481
 H         4.620376        -2.224588        -0.171964
 H         5.076498        -1.328009         1.341346
 H        -0.352903        -0.678559         0.772864
 H        -0.367978         0.994696         0.265497
 H        -0.493359        -0.267520        -0.945977
 H         2.198052         0.717094        -2.073388
 H         1.680796         1.998999        -0.820099
 H         4.467688         2.189036         0.389465
 H         2.393046         0.320618         2.157727
