19
Iteration:  3455charge 0 multiplicity 1
 C         4.196365        -1.818454         0.834363
 C         3.178082        -0.869303         0.313220
 O         1.962408        -1.360326        -0.543096
 C         1.434079        -0.045099        -0.259198
 C        -0.055443         0.020825         0.066980
 C         2.268308         0.959762        -1.020210
 C         3.375283         0.666543        -0.056074
 O         4.673601         1.349308        -0.030259
 C         2.382581         0.260718         1.042939
 H         3.959409        -2.667896         1.415933
 H         4.676682        -2.144802        -0.085992
 H         4.897682        -1.169372         1.406278
 H        -0.225304        -0.885869         0.733571
 H        -0.242732         0.989119         0.595439
 H        -0.826833        -0.134692        -0.802116
 H         2.302054         0.759704        -2.084876
 H         2.076772         2.027577        -0.917737
 H         4.447916         2.313981         0.151721
 H         2.139922         0.547378         2.144874
