19
Iteration:  2575charge 0 multiplicity 1
 C         4.172668        -1.826020         0.760389
 C         3.217564        -0.866191         0.247089
 O         1.956006        -1.242428        -0.424248
 C         1.433464        -0.013283        -0.098529
 C        -0.078550        -0.146390        -0.093108
 C         2.220362         1.123805        -0.989108
 C         3.407928         0.709661        -0.099048
 O         4.701023         1.269462        -0.057065
 C         2.442248         0.236010         1.056228
 H         3.712333        -2.288836         1.696334
 H         4.246056        -2.752014         0.139431
 H         5.164398        -1.482623         0.932790
 H        -0.229649        -0.929596         0.745489
 H        -0.517569         0.700819         0.435047
 H        -0.707838        -0.276615        -0.919596
 H         2.046073         1.045772        -2.106218
 H         1.760618         2.142323        -0.696133
 H         4.576675         2.171823         0.344228
 H         2.386702         0.192456         2.170403
