19
Iteration:  4993charge 0 multiplicity 1
 C         4.256871        -1.859244         0.782422
 C         3.233474        -0.891510         0.279047
 O         2.056629        -1.309912        -0.558480
 C         1.468588        -0.005505        -0.128671
 C        -0.090267         0.072698        -0.031234
 C         2.197590         1.088045        -0.945614
 C         3.406091         0.663110        -0.061265
 O         4.542631         1.415312        -0.020365
 C         2.315002         0.080783         1.060411
 H         3.992233        -1.943597         1.824456
 H         3.996601        -2.754857         0.123123
 H         5.389981        -1.500447         0.667006
 H        -0.257862        -0.851465         0.600935
 H        -0.451662         0.934088         0.577780
 H        -0.613100        -0.003876        -0.962363
 H         2.288615         1.098703        -2.050491
 H         1.863006         2.061678        -0.448819
 H         5.341728         0.907217        -0.214316
 H         2.142898         0.156897         2.132793
