19
Iteration:  4850charge 0 multiplicity 1
 C         4.291897        -1.861272         0.773130
 C         3.189849        -0.915366         0.202186
 O         2.055304        -1.266447        -0.516106
 C         1.447843        -0.019222        -0.104510
 C        -0.136611         0.042915         0.085928
 C         2.189793         1.014607        -1.004448
 C         3.418459         0.631299        -0.094192
 O         4.515807         1.391232         0.017593
 C         2.403388         0.216947         1.018238
 H         3.878051        -2.805360         1.068331
 H         4.945845        -1.991316        -0.133916
 H         4.822499        -1.426655         1.705095
 H        -0.473809        -0.695176         0.823115
 H        -0.551498         1.042587         0.243546
 H        -0.337131        -0.337439        -0.931774
 H         2.265627         1.060141        -2.137940
 H         1.853284         2.030792        -0.617516
 H         5.319867         0.831922        -0.129050
 H         2.210741         0.545554         2.023626
