19
Iteration:  4347
 C         4.275354        -1.837574         0.735190
 C         3.194570        -0.801175         0.281499
 O         2.110481        -1.254449        -0.399412
 C         1.429703        -0.023586        -0.160379
 C        -0.127533        -0.054221        -0.078742
 C         2.222773         1.029856        -0.992396
 C         3.273054         0.786858         0.015881
 O         4.617290         1.236438        -0.070282
 C         2.401446         0.185246         1.120670
 H         3.904775        -2.387072         1.607297
 H         4.395095        -2.661633        -0.051281
 H         5.124099        -1.244940         0.794356
 H        -0.416889        -0.658796         0.784351
 H        -0.359090         0.984362        -0.078797
 H        -0.635425        -0.536712        -0.996587
 H         2.514692         0.761590        -2.035766
 H         1.820618         2.052360        -0.874960
 H         4.618830         2.132970        -0.374874
 H         2.091714        -0.011667         2.141451
