19
Iteration:  3796charge 0 multiplicity 1
 C         4.200819        -1.928944         0.752639
 C         3.209991        -0.872428         0.375352
 O         2.108230        -1.339075        -0.426953
 C         1.443212        -0.012258        -0.213689
 C        -0.061553        -0.065650        -0.000473
 C         2.134703         1.028401        -1.094278
 C         3.310170         0.784180        -0.064341
 O         4.624662         1.309036        -0.034905
 C         2.447128         0.315033         1.092868
 H         3.797635        -2.677480         1.511011
 H         4.499202        -2.480155        -0.177056
 H         5.155944        -1.446803         1.061912
 H        -0.547671        -0.428142         0.850674
 H        -0.411702         0.945638         0.004077
 H        -0.529773        -0.379492        -1.001080
 H         2.189909         0.579599        -2.093869
 H         1.605416         2.000702        -0.947931
 H         4.669387         2.231196         0.256795
 H         2.368798         0.718058         2.203816
