19
Iteration:   221charge 0 multiplicity 1
 C         4.329005        -1.728285         0.558474
 C         3.187316        -0.870056         0.356927
 O         1.917623        -1.374629        -0.382511
 C         1.424334         0.021444        -0.125994
 C        -0.174234         0.076552        -0.165937
 C         2.278012         0.990009        -0.929334
 C         3.441709         0.634310        -0.105493
 O         4.549373         1.374070         0.076225
 C         2.441324         0.151501         1.110804
 H         4.279773        -2.699551         1.067199
 H         4.504983        -2.056927        -0.385030
 H         5.172413        -1.010646         0.881022
 H        -0.383323        -0.653924         0.533822
 H        -0.719749         0.860860         0.094032
 H        -0.572308        -0.202778        -1.158285
 H         2.276666         1.026170        -1.965900
 H         2.028945         2.020719        -0.579050
 H         5.348923         0.787932         0.220265
 H         2.185952         0.199899         2.261918
