19
Iteration:  3150
 C         4.393473        -1.800966         0.699081
 C         3.189845        -0.846833         0.395521
 O         1.987903        -1.326907        -0.412685
 C         1.345516         0.000050        -0.108294
 C        -0.107145         0.078355        -0.050585
 C         2.222479         1.028623        -1.094224
 C         3.339131         0.583635        -0.180591
 O         4.584702         1.238814         0.042554
 C         2.447196         0.257198         1.056031
 H         4.016632        -2.477911         1.438878
 H         4.712998        -2.440380        -0.105694
 H         5.202382        -1.113589         1.158145
 H        -0.488756        -0.786765         0.523717
 H        -0.438750         1.000717         0.247648
 H        -0.461605        -0.384527        -1.043253
 H         2.062725         0.737084        -2.110433
 H         2.091254         2.083633        -1.007311
 H         4.440750         1.994043         0.594845
 H         2.463791         0.755942         2.078459
