19
Iteration:  2248charge 0 multiplicity 1
 C         4.129194        -1.762128         0.751871
 C         3.164962        -0.803472         0.267323
 O         2.065605        -1.349419        -0.428279
 C         1.431599         0.004571        -0.054912
 C        -0.109043        -0.040454        -0.078843
 C         2.203261         1.073032        -0.941119
 C         3.436280         0.649252        -0.105557
 O         4.655019         1.253105        -0.093359
 C         2.443117         0.245720         1.072142
 H         3.574855        -2.641079         1.167429
 H         4.624071        -2.281765        -0.105993
 H         4.965406        -1.529571         1.412767
 H        -0.353630        -0.813057         0.754676
 H        -0.566180         0.873055         0.236951
 H        -0.269078        -0.265607        -1.084172
 H         2.261096         0.901846        -2.013065
 H         1.738191         2.068635        -0.764604
 H         4.495215         2.228120         0.078111
 H         2.344408         0.166235         2.186516
