19
Iteration:   996charge 0 multiplicity 1
 C         4.260506        -1.912145         0.631757
 C         3.200681        -0.748210         0.239538
 O         2.071177        -1.233770        -0.546437
 C         1.423107        -0.039047        -0.090648
 C        -0.121490        -0.049274        -0.056856
 C         2.267968         1.018413        -0.905675
 C         3.362999         0.715934         0.038408
 O         4.642069         1.356867        -0.052311
 C         2.334398         0.157733         1.135245
 H         3.823123        -2.620275         1.459939
 H         4.362445        -2.518937        -0.226408
 H         5.206738        -1.600197         1.063374
 H        -0.445902        -0.345150         0.958816
 H        -0.609945         1.007709        -0.310973
 H        -0.667838        -0.844344        -0.618455
 H         2.506425         0.590768        -1.902138
 H         1.778324         2.012393        -0.775795
 H         4.532546         2.213149         0.379179
 H         2.102390        -0.012401         2.101481
