19
Iteration:  2846
 C         4.297747        -1.721046         0.521993
 C         3.158972        -0.799493         0.294151
 O         1.964324        -1.377979        -0.287311
 C         1.434052        -0.025733        -0.111491
 C        -0.069047         0.066142        -0.119479
 C         2.234915         0.951571        -1.021441
 C         3.304563         0.697335        -0.030629
 O         4.673552         1.226064         0.067418
 C         2.443184         0.234048         1.073516
 H         3.851315        -2.601473         1.062487
 H         4.722253        -2.129064        -0.415314
 H         5.107499        -1.329455         1.200884
 H        -0.502984        -0.655963         0.645113
 H        -0.475277         1.053367         0.029567
 H        -0.464940        -0.474763        -1.028332
 H         2.424182         0.730748        -2.136236
 H         1.668101         1.930725        -0.970391
 H         4.505121         2.141444         0.311853
 H         2.041182         0.491227         2.005178
