19
Iteration:  2565charge 0 multiplicity 1
 C         4.109077        -1.858585         0.769498
 C         3.162335        -0.766415         0.272688
 O         2.118359        -1.266832        -0.471006
 C         1.398441         0.034744        -0.110478
 C        -0.119597        -0.113778         0.006042
 C         2.252732         1.091439        -0.970529
 C         3.398017         0.662392        -0.057327
 O         4.664900         1.278344        -0.126122
 C         2.405131         0.167741         1.064581
 H         3.779842        -2.347750         1.727684
 H         4.152355        -2.579337        -0.070233
 H         5.106652        -1.452069         0.871808
 H        -0.390138        -1.049490         0.634202
 H        -0.592011         0.830383         0.331012
 H        -0.341231        -0.333249        -0.976482
 H         2.458843         1.022289        -2.089241
 H         1.770036         2.061022        -0.569451
 H         4.629098         2.136535         0.325402
 H         2.357657         0.482186         2.124705
