19
Iteration:  1007
 C         4.177594        -1.799510         0.638662
 C         3.227110        -0.830287         0.269618
 O         2.059105        -1.316960        -0.503858
 C         1.390516         0.058508        -0.141431
 C        -0.092650        -0.074469         0.007405
 C         2.289458         1.033845        -0.914722
 C         3.444437         0.647713        -0.015009
 O         4.592461         1.362634         0.013688
 C         2.371920         0.128182         1.060510
 H         3.626370        -2.557363         1.301804
 H         4.325517        -2.266791        -0.307627
 H         5.175619        -1.471637         0.895560
 H        -0.396440        -0.301876         1.042571
 H        -0.616286         0.950020        -0.275315
 H        -0.392578        -0.857365        -0.737171
 H         2.317124         0.953753        -2.016119
 H         2.102558         2.128946        -0.751835
 H         4.359343         2.291944         0.259877
 H         2.110244        -0.003174         2.027341
