19
Iteration:  3498
 C         4.232145        -1.777799         0.728709
 C         3.159513        -0.813096         0.302098
 O         2.029320        -1.366848        -0.441621
 C         1.406671         0.034656        -0.092541
 C        -0.037775        -0.019189        -0.087887
 C         2.103520         0.960736        -1.023090
 C         3.410552         0.626383        -0.090549
 O         4.658991         1.236880         0.008471
 C         2.437534         0.307943         1.040299
 H         3.859708        -2.500362         1.422032
 H         4.807226        -2.271524        -0.063239
 H         4.875538        -1.145999         1.440769
 H        -0.447054        -0.952979         0.401270
 H        -0.374351         0.874076         0.523218
 H        -0.506663         0.130417        -1.132402
 H         2.059787         0.818747        -2.088219
 H         1.675017         1.941900        -0.900711
 H         4.655650         2.146572         0.355652
 H         2.569996         0.758849         2.100810
