19
Iteration:  1784charge 0 multiplicity 1
 C         4.335132        -1.672671         0.610559
 C         3.173444        -0.793687         0.208096
 O         1.948175        -1.311424        -0.299276
 C         1.384944        -0.057750        -0.033198
 C        -0.112865        -0.055539        -0.133710
 C         2.293939         1.055488        -0.981682
 C         3.385797         0.656496        -0.066173
 O         4.613467         1.120791         0.057934
 C         2.383870         0.259761         1.077022
 H         4.196306        -2.510544         1.332037
 H         4.600349        -2.319623        -0.229426
 H         5.205313        -1.091735         0.537920
 H        -0.791029        -0.478536         0.597575
 H        -0.337310         1.011807        -0.167331
 H        -0.424125        -0.291773        -1.223070
 H         2.302744         0.858211        -2.133107
 H         2.027018         2.071126        -0.696461
 H         4.465552         2.087419         0.114579
 H         2.366571         0.562832         2.027257
