19
Iteration:  2424charge 0 multiplicity 1
 C         4.251124        -1.850482         0.717233
 C         3.171729        -0.884947         0.294553
 O         2.005493        -1.309435        -0.431148
 C         1.441326         0.063192        -0.051665
 C        -0.160592        -0.007715        -0.087511
 C         2.213957         1.077131        -0.974919
 C         3.364761         0.679702        -0.119677
 O         4.630143         1.228264        -0.018867
 C         2.485175         0.253324         1.043972
 H         3.873893        -2.568054         1.512314
 H         4.884707        -2.392693        -0.008185
 H         4.952483        -1.234032         1.257306
 H        -0.371007        -1.040327         0.518868
 H        -0.796657         0.893010         0.269151
 H        -0.426589        -0.306789        -1.075773
 H         2.014712         0.795679        -1.977245
 H         2.003404         2.106018        -0.688772
 H         4.666667         2.220107        -0.096350
 H         2.550177         0.426279         2.079967
