19
Iteration:  4600
 C         4.309827        -1.657473         0.756887
 C         3.201802        -0.833885         0.299733
 O         1.972095        -1.304954        -0.486990
 C         1.361804        -0.099162        -0.066251
 C        -0.125149         0.090534        -0.063051
 C         2.206451         0.947171        -0.948797
 C         3.437202         0.587390        -0.160157
 O         4.576184         1.335386        -0.038877
 C         2.433397         0.142518         1.074804
 H         3.997238        -2.432044         1.417717
 H         4.706306        -2.160572        -0.203331
 H         5.139692        -1.009245         1.126844
 H        -0.638432        -0.753249         0.330428
 H        -0.321321         0.902898         0.668692
 H        -0.497394         0.267544        -1.117319
 H         2.205164         0.701308        -2.014578
 H         1.835136         1.938859        -0.742646
 H         5.379763         1.182397         0.504695
 H         2.242886         0.314268         2.176600
