19
Iteration:  3678charge 0 multiplicity 1
 C         4.291862        -1.795255         0.758332
 C         3.207731        -0.823401         0.299463
 O         1.959281        -1.288586        -0.377490
 C         1.372726         0.001410        -0.080359
 C        -0.142998        -0.116149        -0.088632
 C         2.342604         1.111749        -1.049494
 C         3.415763         0.586397        -0.101559
 O         4.561076         1.221928        -0.060822
 C         2.457157         0.306024         1.065168
 H         3.801515        -2.587489         1.309023
 H         5.020604        -2.179120         0.049962
 H         4.893110        -1.188572         1.448038
 H        -0.387902        -1.090860         0.345467
 H        -0.620004         0.674831         0.615644
 H        -0.483241         0.083010        -1.183496
 H         2.187954         0.742383        -2.045631
 H         1.949068         2.112296        -0.850187
 H         4.325856         2.194139        -0.016765
 H         2.381195         0.616387         2.160679
