19
Iteration:  3285charge 0 multiplicity 1
 C         4.237255        -1.848307         0.828140
 C         3.127224        -0.880141         0.295950
 O         2.081893        -1.237517        -0.464254
 C         1.385793         0.065277        -0.217474
 C        -0.113657        -0.059730         0.023062
 C         2.234898         0.994400        -1.051641
 C         3.484801         0.519919        -0.138578
 O         4.591720         1.375169        -0.093954
 C         2.386690         0.239520         1.109582
 H         3.723421        -2.683250         1.472625
 H         4.862825        -2.364994         0.039797
 H         4.761375        -1.318456         1.578844
 H        -0.399303        -0.908381         0.667804
 H        -0.188231         0.971133         0.601839
 H        -0.684603         0.187907        -0.940497
 H         2.224989         0.736590        -2.147982
 H         1.921511         2.036020        -1.087455
 H         4.508681         1.844477         0.786958
 H         2.309946         0.490775         2.214338
