19
Iteration:  2275charge 0 multiplicity 1
 C         4.288956        -1.769007         0.692241
 C         3.157133        -0.833560         0.411864
 O         2.052967        -1.199107        -0.479257
 C         1.389579        -0.015086        -0.125742
 C        -0.144870         0.006363        -0.030223
 C         2.272468         0.969357        -0.998254
 C         3.361543         0.679837         0.080773
 O         4.625805         1.200316        -0.176018
 C         2.362701         0.181414         1.127156
 H         3.881518        -2.721410         1.059838
 H         4.842937        -2.080921        -0.213642
 H         5.105018        -1.480823         1.375686
 H        -0.471810        -0.734621         0.600464
 H        -0.485970         1.048499         0.260287
 H        -0.366271        -0.219866        -1.153545
 H         2.479892         0.524860        -2.052910
 H         1.818460         1.979139        -1.040156
 H         4.698873         2.171388         0.086328
 H         2.117350         0.426629         2.125325
