19
Iteration:  3946
 C         4.274719        -1.845323         0.664751
 C         3.237866        -0.840192         0.304106
 O         2.055233        -1.320281        -0.329571
 C         1.368575        -0.033182        -0.152237
 C        -0.082897        -0.006564        -0.053375
 C         2.181543         0.976434        -1.051281
 C         3.399168         0.655979        -0.154004
 O         4.586496         1.285617         0.115597
 C         2.432312         0.331120         1.014789
 H         3.905946        -2.564587         1.416706
 H         4.540395        -2.500582        -0.158180
 H         5.188431        -1.367284         0.916297
 H        -0.468719        -0.458818         0.873879
 H        -0.435880         0.934115        -0.359464
 H        -0.633376        -0.616492        -0.858406
 H         2.052456         0.898956        -2.132419
 H         1.724581         1.948588        -0.875212
 H         4.466414         2.248048         0.007414
 H         2.392818         0.734507         2.183843
