19
Iteration:  2213
 C         4.270499        -1.851623         0.779381
 C         3.187459        -0.849457         0.221347
 O         2.063591        -1.294995        -0.442632
 C         1.430018         0.135313        -0.085873
 C        -0.138126        -0.036943        -0.007048
 C         2.185311         1.098217        -1.022335
 C         3.407566         0.594125        -0.148751
 O         4.606817         1.221977         0.025043
 C         2.464371         0.252220         1.008486
 H         3.651200        -2.337895         1.476967
 H         4.490859        -2.514194        -0.039906
 H         5.122127        -1.393978         1.342930
 H        -0.350512        -0.957703         0.643508
 H        -0.773076         0.760618         0.270992
 H        -0.588616        -0.469047        -0.904105
 H         2.179492         0.726421        -1.996717
 H         1.773161         2.105128        -0.931755
 H         4.287591         2.133624         0.311559
 H         2.535510         0.578019         2.018000
