19
Iteration:  1514charge 0 multiplicity 1
 C         4.165607        -1.821866         0.763808
 C         3.275077        -0.852961         0.202570
 O         2.039161        -1.295329        -0.468890
 C         1.376434        -0.045881        -0.085312
 C        -0.102341         0.002702        -0.026885
 C         2.164560         0.991929        -0.958063
 C         3.368051         0.642532        -0.129069
 O         4.659600         1.351972         0.009666
 C         2.489247         0.218995         0.986335
 H         3.574920        -2.607725         1.315842
 H         4.784933        -2.371227        -0.115687
 H         4.715193        -1.487755         1.656347
 H        -0.567567        -0.911305         0.399708
 H        -0.445339         0.888513         0.630124
 H        -0.591783        -0.056294        -1.027421
 H         2.141162         0.887312        -2.045920
 H         1.873725         2.073965        -0.746322
 H         4.560133         2.096669         0.642694
 H         2.671967         0.520171         2.045553
