19
Iteration:  1250
 C         4.338341        -1.742084         0.581616
 C         3.121687        -0.917384         0.389825
 O         1.999340        -1.274881        -0.393997
 C         1.412252         0.032215        -0.075951
 C        -0.075093         0.010883        -0.138011
 C         2.222586         1.060235        -0.973315
 C         3.390300         0.667090        -0.073399
 O         4.600713         1.205018         0.010898
 C         2.384025         0.144419         1.127476
 H         4.229741        -2.697106         0.974376
 H         4.630278        -1.985278        -0.431431
 H         5.122012        -1.242303         1.133432
 H        -0.632087        -0.685446         0.567322
 H        -0.520668         0.989903        -0.029770
 H        -0.436234        -0.175649        -1.198047
 H         2.522136         0.931214        -2.068094
 H         1.876850         2.027564        -0.745060
 H         4.419496         2.158369         0.064365
 H         2.387892         0.290108         2.268308
