19
Iteration:  3921charge 0 multiplicity 1
 C         4.281819        -1.695742         0.626202
 C         3.189812        -0.852046         0.311684
 O         1.994366        -1.301449        -0.386462
 C         1.401240         0.006678        -0.105041
 C        -0.129798         0.038003        -0.020563
 C         2.298027         0.837618        -1.121548
 C         3.380705         0.643173        -0.045560
 O         4.598336         1.293592         0.046820
 C         2.418302         0.265863         1.089967
 H         3.980199        -2.549908         1.216385
 H         4.731100        -2.113610        -0.303882
 H         5.081569        -1.109420         1.028746
 H        -0.416460        -0.635513         0.820832
 H        -0.692754         0.995177        -0.124764
 H        -0.509364        -0.481111        -0.852331
 H         2.353100         0.397816        -2.083449
 H         1.979899         1.830953        -1.275665
 H         4.385987         2.077671         0.543361
 H         2.274597         0.356015         2.104901
