19
Iteration:  4721charge 0 multiplicity 1
 C         4.380450        -1.764161         0.630566
 C         3.201577        -0.866503         0.379811
 O         2.039259        -1.409724        -0.488581
 C         1.408236         0.007371        -0.113650
 C        -0.170607         0.145232         0.037115
 C         2.223790         0.958468        -1.151977
 C         3.362053         0.591798        -0.062809
 O         4.523763         1.347863         0.172661
 C         2.380661         0.207469         1.061691
 H         4.208669        -2.599291         1.314214
 H         4.655074        -2.230858        -0.333670
 H         5.249068        -1.035144         0.897622
 H        -0.494347        -0.268216         1.063315
 H        -0.342473         1.253155         0.045293
 H        -0.694184        -0.388225        -0.786840
 H         2.492746         0.573501        -2.131323
 H         1.843025         2.024376        -1.271421
 H         4.990010         1.279353        -0.673483
 H         2.374236         0.586134         2.030442
