19
Iteration:  3469charge 0 multiplicity 1
 C         4.254664        -1.792835         0.808762
 C         3.215664        -0.733163         0.321740
 O         2.019437        -1.322131        -0.538799
 C         1.363729        -0.015700        -0.155980
 C        -0.093860        -0.006875         0.056321
 C         2.256970         0.966919        -1.118689
 C         3.407626         0.648476        -0.062460
 O         4.598608         1.264085        -0.002710
 C         2.390997         0.223557         1.034600
 H         3.525827        -2.461243         1.386529
 H         4.846291        -2.430174         0.083777
 H         4.979021        -1.420343         1.499543
 H        -0.472808        -0.772768         0.732739
 H        -0.272454         0.850010         0.625647
 H        -0.682294         0.238859        -0.892829
 H         2.538265         0.619585        -2.161420
 H         1.718451         1.982187        -1.079705
 H         4.535573         2.190569         0.174801
 H         2.577806         0.209993         2.132042
