19
Iteration:  4192charge 0 multiplicity 1
 C         4.252060        -1.760286         0.733609
 C         3.207814        -0.815039         0.290003
 O         2.106919        -1.287510        -0.459201
 C         1.478278         0.000960        -0.063896
 C        -0.086849        -0.062473        -0.069255
 C         2.176582         1.037489        -1.047048
 C         3.294917         0.625918        -0.119489
 O         4.577896         1.187435         0.010608
 C         2.394549         0.242205         1.102710
 H         3.991970        -2.269662         1.703595
 H         4.575686        -2.439633        -0.094308
 H         5.117729        -1.223082         1.143505
 H        -0.721687        -0.835585         0.517097
 H        -0.491417         0.910524         0.391257
 H        -0.431679        -0.162182        -1.104432
 H         2.274059         0.902473        -2.152140
 H         1.869963         2.095499        -0.763503
 H         4.600725         2.187464         0.038317
 H         2.383150         0.765451         2.033938
