19
Iteration:  3031charge 0 multiplicity 1
 C         4.386689        -1.681190         0.652142
 C         3.165541        -0.820506         0.284793
 O         1.967578        -1.276059        -0.379794
 C         1.357376        -0.014895        -0.114862
 C        -0.143454         0.027410        -0.074618
 C         2.151569         0.972254        -0.989456
 C         3.330713         0.695164        -0.067295
 O         4.689468         1.116039         0.031873
 C         2.434557         0.222192         1.052498
 H         3.982243        -2.401557         1.343686
 H         4.746067        -2.271071        -0.166902
 H         5.194514        -1.091680         1.198372
 H        -0.696378        -0.631571         0.683310
 H        -0.450561         1.013176        -0.269982
 H        -0.383117        -0.543165        -1.141648
 H         2.367843         0.694967        -2.064104
 H         1.934629         2.050695        -0.997242
 H         4.678628         2.050751         0.379198
 H         2.644863         0.443456         2.144822
