19
Iteration:  4538
 C         4.162461        -1.785230         0.547661
 C         3.089332        -0.829157         0.366911
 O         2.078058        -1.373000        -0.423041
 C         1.446335         0.013945        -0.095841
 C        -0.094370        -0.049725        -0.061026
 C         2.240620         0.920452        -1.015745
 C         3.451557         0.634560        -0.019108
 O         4.578667         1.445462         0.054229
 C         2.424699         0.329403         1.069995
 H         3.957267        -2.617953         1.267789
 H         4.317487        -2.214352        -0.397803
 H         5.109981        -1.325747         0.890078
 H        -0.255726        -0.709659         0.849821
 H        -0.521444         0.969016         0.115370
 H        -0.572423        -0.479800        -0.892644
 H         2.220471         0.570417        -2.083791
 H         1.799784         1.949834        -1.018214
 H         5.359110         0.821188         0.026703
 H         2.160745         0.641002         2.092235
