19
Iteration:   797charge 0 multiplicity 1
 C         4.241786        -1.811269         0.518342
 C         3.223667        -0.793731         0.279719
 O         2.068071        -1.296415        -0.455360
 C         1.384018         0.068792        -0.095887
 C        -0.096492        -0.138599        -0.036331
 C         2.272988         1.099281        -0.886595
 C         3.363360         0.688847        -0.024684
 O         4.614362         1.198376         0.058645
 C         2.352892         0.262648         1.047290
 H         3.908521        -2.431363         1.338560
 H         4.410518        -2.562227        -0.280906
 H         5.190977        -1.351788         0.682133
 H        -0.291358        -0.491130         1.008711
 H        -0.672529         0.693424        -0.411314
 H        -0.271526        -0.975932        -0.751208
 H         2.315137         1.003630        -1.953558
 H         1.952558         2.158069        -0.767692
 H         4.422969         2.146676         0.215791
 H         1.944715         0.432255         2.104612
