19
Iteration:  3451charge 0 multiplicity 1
 C         4.203953        -1.795370         0.812244
 C         3.105688        -0.901285         0.311716
 O         1.991865        -1.335709        -0.509751
 C         1.455046        -0.052186        -0.224880
 C        -0.056030         0.026112         0.055838
 C         2.268216         0.970837        -1.006962
 C         3.389242         0.634007        -0.057655
 O         4.657732         1.364619        -0.031021
 C         2.400669         0.234880         1.004768
 H         3.900540        -2.682928         1.417764
 H         4.671550        -2.216341        -0.085197
 H         4.877464        -1.156512         1.435678
 H        -0.145512        -0.819097         0.734418
 H        -0.418839         1.011578         0.583859
 H        -0.696158        -0.159434        -0.738340
 H         2.401790         0.838156        -2.091605
 H         1.951993         2.009433        -0.941099
 H         4.585947         2.293515         0.137705
 H         2.009680         0.574086         1.907858
