19
Iteration:  3937
 C         4.265563        -1.797762         0.639225
 C         3.159858        -0.811290         0.336185
 O         2.040466        -1.369948        -0.388129
 C         1.361532        -0.022974        -0.102867
 C        -0.136735        -0.035168        -0.042400
 C         2.228261         0.960770        -1.082092
 C         3.372836         0.675044        -0.147942
 O         4.592398         1.295503         0.115696
 C         2.489240         0.265201         1.051929
 H         3.972764        -2.510396         1.438962
 H         4.583675        -2.298017        -0.278612
 H         5.233101        -1.354050         1.032506
 H        -0.594836        -0.206397         0.907977
 H        -0.392149         1.021021        -0.111430
 H        -0.535215        -0.610690        -0.973194
 H         2.442862         0.548977        -2.129726
 H         1.882798         2.051847        -1.040048
 H         4.470720         2.266242         0.187765
 H         2.652896         1.032402         1.963377
