19
Iteration:  4379
 C         4.307466        -1.754315         0.633774
 C         3.162622        -0.884178         0.325787
 O         2.015724        -1.316860        -0.350002
 C         1.394063        -0.000132        -0.144907
 C        -0.117038         0.000782        -0.144439
 C         2.215947         0.869201        -0.979055
 C         3.420658         0.621134        -0.094600
 O         4.603191         1.326318         0.020220
 C         2.442205         0.339090         1.092066
 H         4.273737        -2.382763         1.575115
 H         4.305022        -2.472881        -0.299500
 H         5.226841        -1.219992         0.751728
 H        -0.492473        -0.874304         0.454307
 H        -0.647490         0.834598         0.309756
 H        -0.566698        -0.023174        -1.207806
 H         2.118983         0.695436        -2.066382
 H         1.968271         1.923169        -0.793499
 H         4.354057         2.093587         0.608516
 H         2.380545         0.538772         2.139650
