19
Iteration:  1744
 C         4.313593        -1.808138         0.732099
 C         3.205441        -0.837907         0.296753
 O         2.020487        -1.245228        -0.483366
 C         1.371807        -0.012182        -0.064956
 C        -0.101370        -0.026343        -0.046436
 C         2.162280         1.044043        -1.038165
 C         3.317507         0.671620        -0.025658
 O         4.696827         1.218109        -0.054573
 C         2.392431         0.218693         1.064246
 H         4.011966        -2.512368         1.470801
 H         4.591066        -2.451819        -0.180801
 H         5.147470        -1.210045         1.159587
 H        -0.516184        -0.623855         0.745628
 H        -0.468180         1.024366         0.044164
 H        -0.535969        -0.544328        -0.934546
 H         2.360531         0.777727        -2.048361
 H         1.884463         2.124426        -0.896052
 H         4.754461         2.012416         0.516905
 H         2.086272         0.402945         2.166888
