19
Iteration:  2175
 C         4.311802        -1.763380         0.585896
 C         3.129345        -0.847611         0.409059
 O         2.049312        -1.418598        -0.438635
 C         1.371820         0.066451        -0.241850
 C        -0.105753         0.056345         0.027477
 C         2.239249         0.960530        -1.005079
 C         3.326587         0.711027         0.027318
 O         4.668882         1.249229        -0.018179
 C         2.377091         0.229797         1.057257
 H         4.026602        -2.445211         1.461129
 H         4.542569        -2.417445        -0.288310
 H         5.203740        -1.310522         0.935422
 H        -0.257631        -0.582940         0.885273
 H        -0.473339         1.125422         0.231573
 H        -0.495569        -0.198659        -1.001712
 H         2.444566         0.513114        -2.057855
 H         1.799035         1.959803        -1.234463
 H         4.682079         2.106087         0.442099
 H         1.967482         0.561047         2.072129
