19
Iteration:  3416
 C         4.270984        -1.787915         0.734771
 C         3.235079        -0.854669         0.267977
 O         1.996883        -1.232605        -0.401441
 C         1.362058        -0.033919        -0.092197
 C        -0.126394        -0.001240        -0.150373
 C         2.148896         0.970023        -1.003485
 C         3.409240         0.674096        -0.069294
 O         4.627971         1.214711         0.011498
 C         2.501923         0.299425         1.044176
 H         3.629550        -2.543238         1.337163
 H         4.710178        -2.350533        -0.153528
 H         5.172117        -1.493081         1.215295
 H        -0.393254        -0.495026         0.772197
 H        -0.664302         0.940153        -0.058802
 H        -0.483014        -0.685418        -0.902575
 H         2.346208         0.549423        -2.022998
 H         1.845329         2.036794        -0.851469
 H         4.564046         2.020499         0.503119
 H         2.387273         0.682635         2.076692
