19
Iteration:  3452
 C         4.201342        -1.803381         0.818420
 C         3.124712        -0.893714         0.310984
 O         1.982867        -1.342070        -0.519075
 C         1.452227        -0.052958        -0.235609
 C        -0.056083         0.024212         0.057379
 C         2.267612         0.968255        -1.008880
 C         3.383915         0.641522        -0.057004
 O         4.662814         1.362590        -0.030873
 C         2.396463         0.242917         1.015526
 H         3.928184        -2.671375         1.407904
 H         4.658328        -2.193565        -0.079742
 H         4.887346        -1.149127         1.438880
 H        -0.160486        -0.845742         0.733471
 H        -0.383196         1.033208         0.600657
 H        -0.731185        -0.154846        -0.747420
 H         2.369898         0.826138        -2.076665
 H         1.996001         1.998931        -0.944900
 H         4.557311         2.294327         0.139047
 H         2.037863         0.570223         1.966979
