19
Iteration:  4887charge 0 multiplicity 1
 C         4.313944        -1.721922         0.585201
 C         3.232484        -0.810437         0.240846
 O         1.963316        -1.379680        -0.498437
 C         1.396632        -0.060593        -0.100330
 C        -0.092247         0.149343         0.065057
 C         2.245917         0.866285        -1.038190
 C         3.342293         0.674845        -0.024211
 O         4.549392         1.344161         0.131770
 C         2.422986         0.167883         1.023185
 H         4.082543        -2.734304         0.952831
 H         5.172959        -1.785271         0.006104
 H         4.685907        -1.155955         1.427362
 H        -0.727786        -0.077353         0.992808
 H        -0.367046         1.196528        -0.216902
 H        -0.584824        -0.384656        -0.729591
 H         2.593109         0.817798        -2.057027
 H         1.821231         1.837717        -0.799369
 H         5.233430         0.925280        -0.384822
 H         2.267124         0.306917         2.116116
