19
Iteration:  3068
 C         4.181623        -1.788795         0.811349
 C         3.160043        -0.856907         0.323006
 O         1.999399        -1.272790        -0.498376
 C         1.352687         0.047600        -0.166730
 C        -0.040046        -0.138595        -0.033149
 C         2.227666         1.082520        -0.920908
 C         3.372553         0.614320        -0.077271
 O         4.654763         1.239681        -0.124313
 C         2.474954         0.244663         1.077691
 H         3.718680        -2.642743         1.387411
 H         4.857591        -2.128750        -0.019572
 H         4.906872        -1.315181         1.484975
 H        -0.474164        -0.756971         0.752826
 H        -0.498402         0.938837         0.141498
 H        -0.350355        -0.310329        -1.061054
 H         2.441307         0.987696        -2.078138
 H         1.917147         2.133670        -0.597823
 H         4.535356         2.150753         0.153868
 H         2.456497         0.573546         2.080296
