19
Iteration:  3944charge 0 multiplicity 1
 C         4.269108        -1.830705         0.661360
 C         3.223067        -0.842347         0.311377
 O         2.054717        -1.333186        -0.342320
 C         1.341393        -0.033171        -0.144894
 C        -0.082881        -0.020189        -0.052550
 C         2.194930         0.978295        -1.055955
 C         3.406007         0.668002        -0.160204
 O         4.582677         1.284240         0.118838
 C         2.445538         0.324518         1.035501
 H         3.926326        -2.557342         1.405289
 H         4.601005        -2.469356        -0.170058
 H         5.192650        -1.412412         0.900522
 H        -0.523649        -0.413611         0.912733
 H        -0.432875         0.975720        -0.350527
 H        -0.599703        -0.548139        -0.839758
 H         2.120887         0.844256        -2.120446
 H         1.757303         1.929664        -0.949849
 H         4.470814         2.278184         0.037343
 H         2.457429         0.783138         2.079331
