19
Iteration:  2176charge 0 multiplicity 1
 C         4.300507        -1.760087         0.587400
 C         3.133387        -0.853667         0.410265
 O         2.047603        -1.411225        -0.444053
 C         1.365850         0.060380        -0.245466
 C        -0.094025         0.047489         0.033389
 C         2.244119         0.964261        -1.001014
 C         3.326948         0.708227         0.028302
 O         4.676779         1.251187        -0.022027
 C         2.374784         0.236190         1.059171
 H         4.001812        -2.418292         1.419200
 H         4.544445        -2.419982        -0.240826
 H         5.188795        -1.311934         0.915413
 H        -0.258178        -0.552527         0.847960
 H        -0.465299         1.116983         0.238328
 H        -0.515292        -0.200472        -1.012138
 H         2.432450         0.500249        -2.013517
 H         1.752675         1.891673        -1.237497
 H         4.665233         2.121109         0.464431
 H         1.977644         0.559304         2.068404
