19
Iteration:  3189
 C         4.303742        -1.647332         0.589573
 C         3.151563        -0.749808         0.394202
 O         1.962859        -1.388676        -0.372811
 C         1.407687         0.008370        -0.104899
 C        -0.078050         0.021006        -0.107304
 C         2.241351         0.953046        -1.021372
 C         3.353917         0.737633        -0.044185
 O         4.681708         1.137568        -0.041299
 C         2.327006         0.172117         1.142486
 H         4.151547        -2.289403         1.520715
 H         4.573777        -2.305003        -0.274323
 H         5.188398        -1.132515         0.859541
 H        -0.587123        -0.357559         0.786434
 H        -0.581600         1.061425        -0.422924
 H        -0.311649        -0.441693        -1.021207
 H         2.690360         0.734968        -2.038924
 H         1.795196         2.020230        -1.048504
 H         4.726205         2.090613         0.294685
 H         2.283030         0.251488         2.249908
