19
Iteration:  2946
 C         4.179071        -1.827033         0.749234
 C         3.201839        -0.804452         0.242330
 O         2.072834        -1.243877        -0.423450
 C         1.425168        -0.001135        -0.069292
 C        -0.057757        -0.036908        -0.057281
 C         2.130658         0.986389        -0.981914
 C         3.439560         0.578748        -0.220847
 O         4.570820         1.276138         0.012888
 C         2.476462         0.273621         1.083436
 H         3.633373        -2.580314         1.316401
 H         4.642620        -2.349361        -0.108707
 H         5.194962        -1.446205         1.200657
 H        -0.625173        -0.888032         0.453454
 H        -0.519568         0.824699         0.477335
 H        -0.331649        -0.143188        -1.044743
 H         2.269698         0.812530        -2.130948
 H         2.009263         2.035950        -0.636182
 H         4.476030         2.111584         0.447801
 H         2.147030         0.639166         2.099400
