19
Iteration:  2973
 C         4.317920        -1.808675         0.597204
 C         3.134479        -0.889174         0.282391
 O         1.935064        -1.363510        -0.366989
 C         1.375403         0.005207        -0.152520
 C        -0.124837        -0.001311        -0.065476
 C         2.226739         0.949829        -1.097182
 C         3.380749         0.695192        -0.030072
 O         4.640311         1.317884         0.080973
 C         2.515729         0.303208         1.149135
 H         3.922114        -2.499604         1.393767
 H         4.663648        -2.448956        -0.260681
 H         5.210941        -1.366821         0.893518
 H        -0.544955        -0.752060         0.576360
 H        -0.552041         0.972844         0.368346
 H        -0.560531        -0.048236        -1.182331
 H         2.506237         0.500783        -1.999222
 H         2.008694         1.995179        -1.244177
 H         4.528535         2.269797         0.120756
 H         2.426176         0.616820         2.172173
