19
Iteration:  2955charge 0 multiplicity 1
 C         4.186526        -1.843377         0.700283
 C         3.235404        -0.811732         0.295666
 O         2.026417        -1.240826        -0.388296
 C         1.418858         0.063294        -0.025465
 C        -0.064015        -0.010669        -0.080446
 C         2.172783         0.915590        -1.032403
 C         3.398738         0.653831        -0.195151
 O         4.588087         1.273826         0.071388
 C         2.476536         0.197976         1.024439
 H         3.899179        -2.587661         1.418811
 H         4.540424        -2.268219        -0.235190
 H         5.048182        -1.263035         1.136584
 H        -0.301043        -0.931116         0.498742
 H        -0.534012         0.820275         0.292472
 H        -0.394592         0.007343        -1.121594
 H         2.076497         0.654834        -2.141316
 H         1.755008         1.956410        -0.901156
 H         4.305541         2.162729         0.283499
 H         2.608653         0.504974         2.056992
