19
Iteration:  3608
 C         4.241734        -1.749274         0.748959
 C         3.139041        -0.883026         0.336293
 O         2.056388        -1.343618        -0.434499
 C         1.422304         0.062255        -0.160682
 C        -0.097527         0.022157        -0.009751
 C         2.178069         1.012399        -1.102051
 C         3.416691         0.588980        -0.131010
 O         4.605184         1.310105         0.025188
 C         2.444017         0.161965         1.095480
 H         4.012576        -2.482821         1.532553
 H         4.635124        -2.264523        -0.143324
 H         5.058140        -1.039457         0.895753
 H        -0.282647        -0.464248         0.967690
 H        -0.549981         0.975951         0.085731
 H        -0.527288        -0.474827        -0.947077
 H         2.477049         0.618980        -2.052959
 H         1.972779         2.081312        -1.150562
 H         4.187230         2.160484         0.343225
 H         2.232968         0.399182         2.147358
