19
Iteration:  3998
 C         4.261000        -1.735395         0.811189
 C         3.165310        -0.765550         0.309163
 O         2.042202        -1.238545        -0.523626
 C         1.315145         0.090298        -0.099622
 C        -0.138773        -0.161695        -0.105563
 C         2.215807         0.980080        -0.911239
 C         3.406170         0.638335        -0.043175
 O         4.652522         1.230129        -0.150215
 C         2.450653         0.234985         1.132506
 H         3.844262        -2.400126         1.623085
 H         4.478200        -2.490641        -0.027495
 H         5.131723        -1.187238         1.201033
 H        -0.362543        -1.063783         0.554468
 H        -0.595715         0.831681         0.094147
 H        -0.532784        -0.472267        -1.060128
 H         2.311444         0.680091        -1.966201
 H         2.107166         2.068683        -0.915366
 H         4.819208         2.079932         0.347932
 H         2.311194         0.283630         2.260152
