19
Iteration:  1643charge 0 multiplicity 1
 C         4.368550        -1.795269         0.655347
 C         3.196279        -0.784394         0.379628
 O         1.991803        -1.314398        -0.437466
 C         1.354358        -0.017230        -0.198234
 C        -0.097560         0.028122        -0.059168
 C         2.245370         0.997981        -0.976190
 C         3.334519         0.684399         0.075038
 O         4.634214         1.210610        -0.117791
 C         2.357479         0.222025         1.120853
 H         3.927799        -2.658335         1.200218
 H         4.930763        -2.199590        -0.210042
 H         5.055484        -1.139701         1.151997
 H        -0.620098        -0.708018         0.554833
 H        -0.458919         1.006711         0.193046
 H        -0.532566        -0.043604        -1.132690
 H         2.421681         0.555095        -1.982293
 H         1.858235         1.983687        -0.910463
 H         4.851347         2.022805         0.381888
 H         2.171844         0.374428         2.126583
