19
Iteration:  3340charge 0 multiplicity 1
 C         4.307059        -1.700585         0.683005
 C         3.172536        -0.773940         0.376886
 O         2.026328        -1.279755        -0.415492
 C         1.352924         0.023386        -0.142639
 C        -0.143797         0.036000        -0.066582
 C         2.220288         0.885736        -1.001209
 C         3.433054         0.674217        -0.120577
 O         4.622274         1.169269         0.058552
 C         2.403719         0.215704         1.064423
 H         4.021866        -2.605674         1.336015
 H         4.601882        -2.243409        -0.260857
 H         5.195752        -1.313254         1.118408
 H        -0.599350        -0.752311         0.544653
 H        -0.560516         1.088185         0.087771
 H        -0.463366        -0.272198        -1.098687
 H         2.214395         0.643462        -2.099571
 H         1.926054         1.954997        -0.973079
 H         4.771540         2.129495        -0.189934
 H         2.296261         0.374015         2.190889
