19
Iteration:  3830
 C         4.178283        -1.780418         0.777960
 C         3.120308        -0.841968         0.295004
 O         2.036676        -1.297381        -0.451284
 C         1.442104         0.013607        -0.140081
 C        -0.149285        -0.134508        -0.050240
 C         2.296217         1.021123        -0.947556
 C         3.423027         0.669170        -0.014560
 O         4.612699         1.291962        -0.121745
 C         2.433525         0.258340         1.123674
 H         3.709850        -2.571949         1.415219
 H         4.601378        -2.294480        -0.110133
 H         4.962743        -1.098006         1.312869
 H        -0.203675        -1.077219         0.405603
 H        -0.406080         0.869675         0.337988
 H        -0.656810        -0.267782        -1.063286
 H         2.357536         0.803781        -2.031844
 H         2.017567         2.117290        -1.015332
 H         4.454001         2.228095        -0.416751
 H         2.574845         0.475164         2.261643
