19
Iteration:  1037
 C         4.332198        -1.862577         0.675985
 C         3.257182        -0.886070         0.228686
 O         1.927131        -1.234786        -0.496782
 C         1.407760         0.012727        -0.136057
 C        -0.093911        -0.107399        -0.008405
 C         2.130067         1.043906        -0.999661
 C         3.390769         0.710139        -0.091215
 O         4.575739         1.233845         0.195909
 C         2.515920         0.276894         0.954973
 H         3.923103        -2.732689         1.247592
 H         4.738778        -2.345411        -0.237339
 H         5.102473        -1.436650         1.285267
 H        -0.280570        -0.550099         0.997674
 H        -0.482827         0.967872        -0.015836
 H        -0.495595        -0.467530        -0.948591
 H         2.149745         0.835252        -2.062015
 H         1.842373         2.110718        -0.697135
 H         4.586636         2.202810         0.215671
 H         2.319533         0.740432         1.994160
