19
Iteration:  2331
 C         4.325796        -1.742179         0.637906
 C         3.177157        -0.809669         0.288293
 O         1.953355        -1.375520        -0.421639
 C         1.330292        -0.005520        -0.059756
 C        -0.115677         0.007379         0.007967
 C         2.197223         1.018434        -1.112377
 C         3.387060         0.673459        -0.102726
 O         4.651505         1.166671         0.099589
 C         2.487810         0.327459         1.018542
 H         3.950987        -2.423011         1.342726
 H         4.821272        -2.209144        -0.204169
 H         5.104107        -1.126906         1.192541
 H        -0.632603        -0.695788         0.574290
 H        -0.394766         1.031485         0.166403
 H        -0.437787        -0.275335        -1.080276
 H         1.986798         0.571711        -2.144628
 H         1.923445         2.096588        -1.038023
 H         4.673535         2.028471         0.548772
 H         2.581011         0.269561         2.119964
