19
Iteration:  3295
 C         4.222904        -1.835372         0.863253
 C         3.206509        -0.881164         0.333088
 O         2.015989        -1.293875        -0.480413
 C         1.392843         0.014971        -0.146557
 C        -0.076593         0.051482         0.000498
 C         2.232224         0.987260        -1.110168
 C         3.388811         0.613806        -0.102203
 O         4.614121         1.347061        -0.073234
 C         2.412784         0.215902         1.001357
 H         3.900068        -2.779010         1.422452
 H         4.940371        -2.214759         0.054768
 H         4.952717        -1.295011         1.459107
 H        -0.298983        -0.902496         0.507901
 H        -0.450481         0.804653         0.728638
 H        -0.812523        -0.054630        -0.869824
 H         2.269377         0.882764        -2.215166
 H         1.923218         2.009798        -0.760798
 H         4.449714         1.786138         0.827627
 H         2.423015         0.475151         2.075642
