19
Iteration:  2863
 C         4.361314        -1.847215         0.661685
 C         3.240695        -0.847990         0.302423
 O         1.955062        -1.343829        -0.378125
 C         1.383321        -0.009869        -0.103391
 C        -0.117639        -0.038053        -0.064803
 C         2.120910         1.079506        -1.034502
 C         3.407556         0.727535        -0.126910
 O         4.662836         1.199995         0.103989
 C         2.359894         0.286586         1.018405
 H         4.081274        -2.787524         1.152980
 H         4.887114        -2.041662        -0.278769
 H         4.986862        -1.371642         1.389183
 H        -0.517684        -0.569091         0.763609
 H        -0.374170         1.051203        -0.068373
 H        -0.536907        -0.358791        -1.036025
 H         2.131561         0.963733        -2.094810
 H         1.784373         2.101983        -0.856749
 H         4.786664         2.149346        -0.052997
 H         2.540464         0.514462         2.096200
