19
Iteration:  1023
 C         4.218726        -1.873712         0.627594
 C         3.096360        -0.900706         0.261231
 O         2.026118        -1.302545        -0.504714
 C         1.437362         0.027000        -0.138514
 C        -0.037627        -0.063087        -0.009063
 C         2.230158         1.113860        -0.988330
 C         3.360467         0.621023        -0.119615
 O         4.606235         1.342205         0.144670
 C         2.470056         0.202895         1.058676
 H         3.937577        -2.572588         1.373026
 H         4.740159        -2.389119        -0.261203
 H         4.935385        -1.156514         1.099746
 H        -0.329873        -0.536267         0.935336
 H        -0.532192         0.822657        -0.107551
 H        -0.439377        -0.869883        -0.602581
 H         2.291236         1.038072        -2.089777
 H         1.792775         2.056734        -0.669497
 H         4.323381         2.269076         0.116766
 H         2.589241         0.737182         2.118042
