19
Iteration:  2870charge 0 multiplicity 1
 C         4.318696        -1.812371         0.660156
 C         3.217279        -0.834768         0.350712
 O         2.013334        -1.300130        -0.445143
 C         1.394210         0.031956        -0.126950
 C        -0.164534        -0.048223        -0.069687
 C         2.124802         1.075808        -1.015322
 C         3.397385         0.618956        -0.115824
 O         4.642411         1.192871         0.092464
 C         2.485455         0.276548         1.024823
 H         3.923100        -2.711237         1.165289
 H         5.026491        -2.131844        -0.131910
 H         4.921433        -1.267299         1.523844
 H        -0.669264        -0.670302         0.797658
 H        -0.488023         1.094964         0.144409
 H        -0.650518        -0.526345        -0.894737
 H         2.069804         0.967271        -2.137773
 H         1.773651         2.087995        -0.773635
 H         4.642736         2.159415        -0.177650
 H         2.413911         0.576393         2.090090
