19
Iteration:  4181
 C         4.296378        -1.812869         0.766073
 C         3.222155        -0.804066         0.339190
 O         2.124258        -1.253344        -0.440009
 C         1.344806        -0.005448        -0.209390
 C        -0.094639        -0.089203        -0.069263
 C         2.230670         1.083680        -0.963036
 C         3.340575         0.702970        -0.025235
 O         4.583240         1.152852        -0.068036
 C         2.346315         0.273100         1.063067
 H         3.923577        -2.421133         1.638191
 H         4.518733        -2.608122         0.011507
 H         5.221781        -1.225162         0.869553
 H        -0.203462        -0.907629         0.739646
 H        -0.448535         0.959080         0.223481
 H        -0.656500        -0.313811        -0.976332
 H         2.241179         0.829492        -2.046121
 H         1.757408         2.097854        -0.764082
 H         4.555933         2.125023        -0.031723
 H         2.268800         0.456277         2.101918
