19
Iteration:    75charge 0 multiplicity 1
 C         4.374423        -1.831671         0.544327
 C         3.200534        -0.889011         0.290587
 O         1.948867        -1.313613        -0.386672
 C         1.408561         0.005941        -0.062551
 C        -0.101323         0.026812        -0.091030
 C         2.186236         1.041654        -0.980682
 C         3.357705         0.718949        -0.073380
 O         4.570003         1.374924         0.171113
 C         2.451939         0.155094         1.033318
 H         3.978597        -2.602502         1.165845
 H         4.669642        -2.362207        -0.405707
 H         5.116480        -1.425891         1.141073
 H        -0.607153        -0.784046         0.446539
 H        -0.517165         1.069944         0.024623
 H        -0.331135        -0.226579        -1.073726
 H         2.264011         0.770142        -2.036177
 H         1.823059         2.049103        -0.871392
 H         5.232534         1.090213        -0.492162
 H         2.258553         0.279980         2.093978
