19
Iteration:  4042
 C         4.286890        -1.652388         0.727534
 C         3.179006        -0.756647         0.319548
 O         2.043835        -1.412228        -0.405270
 C         1.353198        -0.052000        -0.160028
 C        -0.117119         0.006983        -0.076852
 C         2.191919         0.972193        -1.003331
 C         3.412684         0.621094        -0.083223
 O         4.637817         1.193238         0.050235
 C         2.415305         0.322227         1.000328
 H         3.927616        -2.674332         1.064798
 H         4.887529        -2.028181        -0.168263
 H         5.086129        -1.352709         1.382489
 H        -0.477676        -0.977492         0.399117
 H        -0.358042         0.840192         0.572037
 H        -0.786942         0.208424        -0.919345
 H         2.139183         0.742279        -2.086709
 H         1.755989         1.969086        -0.888294
 H         4.394297         2.165763        -0.035627
 H         2.596624         0.629716         2.131326
