19
Iteration:  1148charge 0 multiplicity 1
 C         4.209261        -1.862756         0.663831
 C         3.220168        -0.811186         0.251737
 O         2.060966        -1.283807        -0.437686
 C         1.431725         0.054677        -0.114417
 C        -0.053231        -0.047020        -0.052653
 C         2.141213         1.057473        -1.016379
 C         3.375467         0.732961        -0.043268
 O         4.621826         1.252377         0.083549
 C         2.427677         0.152675         1.060031
 H         3.535421        -2.484991         1.334822
 H         4.581597        -2.396307        -0.160729
 H         5.153046        -1.513891         1.077054
 H        -0.319663        -0.858488         0.612395
 H        -0.707731         0.766971         0.406176
 H        -0.423747        -0.183547        -1.063124
 H         2.235353         0.858036        -2.076234
 H         1.703517         2.098573        -0.984515
 H         4.602045         2.226492        -0.070695
 H         2.424548         0.232841         2.065337
