19
Iteration:  2319charge 0 multiplicity 1
 C         4.338048        -1.707224         0.668722
 C         3.212871        -0.806331         0.173147
 O         1.892852        -1.349550        -0.313881
 C         1.433654        -0.038945        -0.068622
 C        -0.139715         0.018842        -0.069608
 C         2.154659         1.002013        -1.047574
 C         3.338899         0.733368        -0.199888
 O         4.664975         1.110496         0.153309
 C         2.508834         0.253077         1.001895
 H         4.012681        -2.586050         1.203916
 H         4.898233        -2.105463        -0.175465
 H         5.030744        -1.063875         1.282159
 H        -0.453297        -0.602921         0.647183
 H        -0.562337         0.985216         0.292049
 H        -0.548680        -0.156768        -1.102618
 H         2.405743         0.839330        -2.170869
 H         1.669141         1.982181        -0.891478
 H         4.620802         2.089820         0.409856
 H         2.563281         0.539189         2.038541
