19
Iteration:  3974
 C         4.202426        -1.816271         0.746321
 C         3.166265        -0.802382         0.332508
 O         2.058337        -1.325310        -0.434663
 C         1.445398         0.021327        -0.118122
 C        -0.101851        -0.115503        -0.074304
 C         2.242863         1.068335        -0.965213
 C         3.349185         0.705168        -0.064529
 O         4.656194         1.285055        -0.087325
 C         2.399588         0.220983         1.114561
 H         3.859771        -2.424278         1.604364
 H         4.170609        -2.552038        -0.119077
 H         5.215718        -1.283401         0.971858
 H        -0.460716        -0.747733         0.772131
 H        -0.529031         0.935206        -0.280524
 H        -0.404953        -0.702173        -0.916272
 H         2.296703         0.806653        -2.057387
 H         1.762534         2.106113        -0.882720
 H         4.615671         2.233986        -0.018907
 H         2.331099         0.455866         2.081965
