19
Iteration:  2598charge 0 multiplicity 1
 C         4.247753        -1.754920         0.735823
 C         3.173303        -0.888681         0.209877
 O         1.989194        -1.316283        -0.439386
 C         1.387518         0.053445        -0.033572
 C        -0.128922        -0.022041        -0.032532
 C         2.190401         1.042054        -1.027451
 C         3.385058         0.653408        -0.146816
 O         4.665960         1.205196         0.092713
 C         2.509028         0.242733         0.995004
 H         3.978309        -2.366507         1.628763
 H         4.484826        -2.564746         0.023795
 H         5.198914        -1.208158         0.824426
 H        -0.428083        -0.948535         0.582091
 H        -0.835237         0.786873         0.288207
 H        -0.307432        -0.084227        -1.056202
 H         2.123786         0.931483        -2.171963
 H         1.633769         2.038682        -0.788549
 H         4.516501         2.124585         0.279477
 H         2.716432         0.714736         1.990471
