19
Iteration:  2277charge 0 multiplicity 1
 C         4.298945        -1.771526         0.706560
 C         3.147955        -0.836674         0.420688
 O         2.048526        -1.204982        -0.487961
 C         1.367708        -0.025195        -0.102929
 C        -0.138061         0.026284        -0.030503
 C         2.278117         0.980495        -1.005392
 C         3.356968         0.664071         0.051813
 O         4.626366         1.195769        -0.161288
 C         2.379942         0.204521         1.112962
 H         3.950870        -2.704787         1.020066
 H         4.797292        -1.974984        -0.254252
 H         5.168542        -1.495642         1.362329
 H        -0.490615        -0.826764         0.581614
 H        -0.451610         1.038433         0.257433
 H        -0.389829        -0.276083        -1.179186
 H         2.526707         0.566056        -1.997165
 H         1.767220         1.946997        -1.012448
 H         4.674637         2.147768         0.094006
 H         2.079953         0.387321         2.134640
