19
Iteration:   433charge 0 multiplicity 1
 C         4.231327        -1.766640         0.551186
 C         3.139034        -0.873057         0.289538
 O         2.031834        -1.290532        -0.439373
 C         1.446926        -0.097347        -0.127805
 C        -0.055158        -0.041168        -0.021192
 C         2.218856         1.020253        -0.996933
 C         3.385599         0.654218        -0.056519
 O         4.593327         1.266940         0.131070
 C         2.413025         0.310633         1.039163
 H         4.037809        -2.763991         1.144589
 H         4.511971        -2.262592        -0.463433
 H         5.134824        -1.327587         1.006447
 H        -0.545392        -0.597078         0.792126
 H        -0.438973         1.026401         0.081397
 H        -0.382894        -0.363874        -0.965156
 H         2.360910         0.986996        -2.125821
 H         1.893442         1.990222        -0.632231
 H         4.382133         2.210711         0.347324
 H         2.419710         0.555424         2.079037
