19
Iteration:   486
 C         4.108883        -1.752887         0.726388
 C         3.149204        -0.829323         0.177706
 O         2.096033        -1.283994        -0.567550
 C         1.452793        -0.065792        -0.146668
 C        -0.061404        -0.083233        -0.028987
 C         2.119599         1.082200        -0.863898
 C         3.388822         0.739895        -0.062771
 O         4.682793         1.234513         0.004426
 C         2.490040         0.156659         1.084491
 H         3.448992        -2.513655         1.383668
 H         4.832271        -2.261051         0.042559
 H         4.802328        -1.275787         1.412810
 H        -0.450056        -0.895574         0.678427
 H        -0.377823         0.853882         0.582983
 H        -0.620615        -0.223208        -0.940703
 H         2.051347         1.041385        -2.007714
 H         1.653378         2.044585        -0.719692
 H         4.682889         2.189950         0.278835
 H         2.480665         0.420913         2.109635
