19
Iteration:  1425charge 0 multiplicity 1
 C         4.294319        -1.792589         0.525204
 C         3.189129        -0.779693         0.265178
 O         2.007195        -1.258914        -0.367298
 C         1.394831        -0.055503        -0.013161
 C        -0.127462        -0.011911        -0.167115
 C         2.206541         1.054939        -0.995098
 C         3.337061         0.650353        -0.046275
 O         4.620086         1.143547         0.091196
 C         2.461387         0.255131         1.129405
 H         3.982211        -2.490846         1.336417
 H         4.761378        -2.121325        -0.467647
 H         5.104753        -1.168645         0.954672
 H        -0.513051        -0.564423         0.733697
 H        -0.673191         0.901633        -0.061821
 H        -0.358655        -0.615066        -1.167479
 H         2.392005         0.726717        -2.073467
 H         1.961856         2.103206        -1.033993
 H         4.482355         2.121455         0.150625
 H         2.483849         0.662229         2.135468
