19
Iteration:   283charge 0 multiplicity 1
 C         4.146775        -1.945052         0.628544
 C         3.166017        -0.888151         0.305376
 O         2.055950        -1.304290        -0.481169
 C         1.421396        -0.001591        -0.182278
 C        -0.111803        -0.077691         0.017434
 C         2.289191         1.085445        -0.946734
 C         3.414167         0.673700        -0.015271
 O         4.623766         1.441707        -0.031893
 C         2.388700         0.202365         1.031024
 H         3.878817        -2.810034         1.162007
 H         4.774748        -2.086624        -0.336814
 H         4.910233        -1.451601         1.223261
 H        -0.278056        -0.778630         0.865218
 H        -0.335889         0.999687         0.347965
 H        -0.835842        -0.383954        -0.795677
 H         2.433494         0.836699        -2.007620
 H         1.993294         2.140806        -0.759075
 H         4.744816         1.735150         0.898581
 H         1.998482         0.578519         2.002255
