19
Iteration:  4563charge 0 multiplicity 1
 C         4.387348        -1.779374         0.591236
 C         3.206552        -0.814536         0.326556
 O         1.989020        -1.366609        -0.353205
 C         1.432502        -0.047950        -0.151129
 C        -0.147293         0.078052        -0.000515
 C         2.279480         0.999894        -1.116344
 C         3.350367         0.646777        -0.022769
 O         4.533304         1.373832         0.067577
 C         2.366451         0.221936         1.020736
 H         4.117459        -2.559292         1.350226
 H         4.490367        -2.281977        -0.356678
 H         5.334492        -1.427142         0.908749
 H        -0.393772        -0.807291         0.664304
 H        -0.423325         1.021565         0.464143
 H        -0.734496        -0.003939        -0.935362
 H         2.340663         0.572837        -2.141196
 H         1.789530         1.985408        -1.220100
 H         5.102923         0.698575         0.533262
 H         2.240522         0.600074         1.990512
