19
Iteration:  2134charge 0 multiplicity 1
 C         4.302132        -1.700653         0.618020
 C         3.177943        -0.889327         0.266672
 O         1.948094        -1.391444        -0.366200
 C         1.388045         0.049130        -0.046902
 C        -0.070506         0.077882        -0.129508
 C         2.139106         0.924552        -0.985784
 C         3.338617         0.644407        -0.116991
 O         4.651742         1.210005         0.098971
 C         2.528108         0.258802         1.063753
 H         4.087122        -2.571499         1.178405
 H         4.750872        -2.169300        -0.235548
 H         5.082240        -1.053462         0.973847
 H        -0.520452        -0.517841         0.567458
 H        -0.626822         1.046278        -0.005350
 H        -0.413731        -0.296358        -1.163781
 H         2.005738         0.700383        -2.025168
 H         1.916779         1.962967        -0.848795
 H         4.663755         2.203700         0.203771
 H         2.546006         0.773755         2.064906
