19
Iteration:   238
 C         4.361444        -1.789189         0.527771
 C         3.163316        -0.908449         0.230215
 O         1.942544        -1.319093        -0.371285
 C         1.324230        -0.008886        -0.067932
 C        -0.123070         0.014724        -0.120680
 C         2.224502         1.030644        -0.983691
 C         3.354810         0.648476        -0.006360
 O         4.597484         1.388752         0.109823
 C         2.467352         0.203663         1.067047
 H         4.077258        -2.558886         1.255892
 H         4.917839        -2.312846        -0.390001
 H         5.186429        -1.374707         1.057109
 H        -0.738675        -0.707638         0.520261
 H        -0.279759         1.184790        -0.020049
 H        -0.343925        -0.179836        -1.191548
 H         2.369030         0.623276        -2.044381
 H         1.786783         2.038853        -1.008057
 H         5.283185         0.908320         0.646031
 H         2.550434         0.542652         2.065712
