19
Iteration:  1687charge 0 multiplicity 1
 C         4.200790        -1.966051         0.810986
 C         3.249012        -0.840445         0.189878
 O         2.020210        -1.249817        -0.408040
 C         1.393596         0.016915        -0.092719
 C        -0.105582        -0.052048        -0.009062
 C         2.224919         1.020699        -1.044475
 C         3.375442         0.641535        -0.159162
 O         4.570996         1.335076         0.072054
 C         2.513492         0.286905         0.969448
 H         3.560745        -2.832513         1.052687
 H         5.017779        -2.267813         0.106096
 H         4.879096        -1.600909         1.553371
 H        -0.317457        -0.937423         0.594700
 H        -0.560659         0.716273         0.614966
 H        -0.735600        -0.009561        -0.984083
 H         2.282121         0.821080        -2.167583
 H         1.928698         2.033844        -0.768364
 H         4.406212         2.290551        -0.043548
 H         2.592902         0.697487         1.894912
