19
Iteration:   170charge 0 multiplicity 1
 C         4.196948        -1.771853         0.653016
 C         3.230755        -0.810520         0.211032
 O         2.090953        -1.249305        -0.471357
 C         1.384065         0.050028        -0.089682
 C        -0.100621        -0.090798        -0.073485
 C         2.105260         1.061608        -0.954315
 C         3.367609         0.692877        -0.075738
 O         4.671496         1.265521         0.147477
 C         2.429677         0.171022         1.059476
 H         3.498300        -2.436113         1.259029
 H         4.681391        -2.485304        -0.107830
 H         4.919473        -1.403488         1.418837
 H        -0.361745        -0.971507         0.592780
 H        -0.580134         0.885315         0.371344
 H        -0.588944        -0.178959        -1.082717
 H         2.184953         0.710062        -2.045456
 H         1.781063         2.117920        -0.934754
 H         5.063311         1.329213        -0.718429
 H         2.573717         0.117948         2.128789
