19
Iteration:  1725charge 0 multiplicity 1
 C         4.105907        -1.789415         0.708856
 C         3.165203        -0.779256         0.263532
 O         2.123800        -1.305604        -0.483770
 C         1.418512        -0.006764        -0.187163
 C        -0.103888        -0.045587         0.021283
 C         2.323935         0.962947        -0.948240
 C         3.377081         0.687824        -0.041096
 O         4.603893         1.282751        -0.100049
 C         2.389184         0.225073         1.104658
 H         3.591754        -2.569185         1.324403
 H         4.435636        -2.136166        -0.286340
 H         4.829198        -1.435288         1.477747
 H        -0.232629        -0.777266         0.847966
 H        -0.341985         0.978264         0.334819
 H        -0.546808        -0.389765        -0.846309
 H         2.336084         0.738332        -1.999698
 H         1.918770         1.990524        -0.895760
 H         4.593475         2.069924         0.502702
 H         2.397908         0.402376         2.265930
