19
Iteration:  2648
 C         4.272433        -1.682688         0.503672
 C         3.137403        -0.896392         0.378963
 O         1.982292        -1.405018        -0.358273
 C         1.396605        -0.056836        -0.141002
 C        -0.058788         0.101736        -0.031927
 C         2.302999         0.948235        -1.025091
 C         3.352592         0.759361        -0.043549
 O         4.640944         1.237281        -0.017987
 C         2.365261         0.171516         1.167119
 H         4.076566        -2.682960         0.937959
 H         4.950080        -1.828020        -0.367225
 H         4.906116        -1.258459         1.256302
 H        -0.596012        -0.387814         0.763628
 H        -0.276539         1.127497         0.011598
 H        -0.608559        -0.077944        -1.075274
 H         2.541239         0.588574        -1.988644
 H         2.072700         1.953211        -1.146615
 H         4.605463         2.203814         0.278930
 H         1.865352         0.459889         2.114359
