19
Iteration:  4397charge 0 multiplicity 1
 C         4.394776        -1.818400         0.620408
 C         3.296550        -0.810750         0.371235
 O         1.944319        -1.359404        -0.270365
 C         1.389408        -0.002367        -0.074273
 C        -0.181913        -0.014806        -0.124176
 C         2.207655         1.022528        -1.152446
 C         3.303178         0.660562        -0.163044
 O         4.585709         1.279553         0.086127
 C         2.473583         0.244563         1.017553
 H         4.092967        -2.492560         1.491105
 H         4.574265        -2.443538        -0.262455
 H         5.221910        -1.126382         1.014134
 H        -0.620335        -1.006445         0.293661
 H        -0.539735         0.913670         0.412579
 H        -0.412030         0.192836        -1.126207
 H         2.479500         0.703995        -2.148707
 H         1.912255         2.099664        -1.154825
 H         4.468237         1.797631         0.926353
 H         2.471741         0.821767         2.020226
