19
Iteration:  3311
 C         4.251803        -1.744313         0.782237
 C         3.158826        -0.850962         0.252571
 O         1.978887        -1.408297        -0.438263
 C         1.423636        -0.013525        -0.172900
 C        -0.070044         0.010234         0.022000
 C         2.214689         1.004646        -0.993858
 C         3.410155         0.723362        -0.127880
 O         4.599476         1.247162         0.019029
 C         2.480316         0.242445         0.986065
 H         3.702102        -2.473921         1.341115
 H         4.744985        -2.345912         0.035919
 H         4.883583        -1.286006         1.587535
 H        -0.537152        -0.882664         0.505364
 H        -0.347818         1.055059         0.454193
 H        -0.336329         0.186480        -0.986853
 H         2.309404         0.717557        -2.051044
 H         1.773853         1.981099        -1.147552
 H         4.655453         2.116549         0.478002
 H         2.198570         0.603557         1.964831
