19
Iteration:  2397
 C         4.135003        -1.846861         0.731909
 C         3.250997        -0.802156         0.244494
 O         1.990110        -1.246747        -0.447359
 C         1.438887        -0.042336        -0.065229
 C        -0.109345        -0.034315        -0.072820
 C         2.125933         1.025255        -0.976708
 C         3.389665         0.631528        -0.150403
 O         4.683622         1.317897         0.033996
 C         2.495344         0.186438         1.103511
 H         3.635282        -2.200125         1.595151
 H         4.381441        -2.640778         0.044487
 H         5.127317        -1.492683         1.124333
 H        -0.427177        -0.781676         0.506668
 H        -0.533911         0.880881         0.155673
 H        -0.389842        -0.359911        -1.120832
 H         1.887493         0.784419        -2.062666
 H         1.942258         2.058126        -0.604940
 H         4.612801         2.200488        -0.383169
 H         2.999909         0.566571         2.040973
