19
Iteration:  2186charge 0 multiplicity 1
 C         4.209164        -1.753961         0.650614
 C         3.108059        -0.840493         0.325474
 O         2.027736        -1.290708        -0.471868
 C         1.423015        -0.067195        -0.156312
 C        -0.029646        -0.003826         0.001765
 C         2.267589         0.956206        -1.026513
 C         3.373933         0.702377        -0.009380
 O         4.696484         1.266081        -0.030309
 C         2.340426         0.261805         1.081321
 H         3.887038        -2.486996         1.472188
 H         4.420996        -2.389214        -0.248011
 H         5.075518        -1.171438         0.867781
 H        -0.386703        -0.671518         0.788223
 H        -0.305649         1.049954         0.355051
 H        -0.776469        -0.335840        -0.761534
 H         2.499138         0.441057        -2.035379
 H         1.628665         1.857260        -1.080187
 H         4.596371         2.088796         0.542332
 H         2.199766         0.516752         2.182768
