19
Iteration:   790
 C         4.260452        -1.803560         0.512549
 C         3.194191        -0.812019         0.252070
 O         2.056208        -1.219674        -0.443858
 C         1.401296         0.088224        -0.100604
 C        -0.111709        -0.136764        -0.064855
 C         2.256297         1.061876        -0.989800
 C         3.347653         0.656626        -0.040650
 O         4.567211         1.179147         0.110092
 C         2.394264         0.243939         1.118141
 H         4.116675        -2.347612         1.561880
 H         4.498218        -2.439364        -0.355111
 H         5.211655        -1.247560         0.726546
 H        -0.447001        -0.520852         0.915922
 H        -0.747532         0.775511        -0.252559
 H        -0.289762        -1.031393        -0.627444
 H         2.426716         0.926856        -2.100698
 H         2.048793         2.134205        -0.751845
 H         4.466148         2.126702         0.228087
 H         2.560142         0.257451         2.211505
