19
Iteration:  4783
 C         4.224649        -1.837825         0.633732
 C         3.235353        -0.883753         0.385163
 O         2.065946        -1.241943        -0.373358
 C         1.327777         0.039308        -0.158940
 C        -0.171418        -0.112656        -0.140038
 C         2.199246         1.050199        -1.010355
 C         3.351377         0.600882        -0.070786
 O         4.599611         1.331265         0.043939
 C         2.551241         0.315838         1.144966
 H         4.183530        -2.273814         1.619963
 H         4.341039        -2.568121        -0.233983
 H         5.175592        -1.332825         0.744477
 H        -0.510844        -1.034740         0.142789
 H        -0.567028         0.548365         0.609156
 H        -0.737694         0.117626        -1.122726
 H         2.234439         0.951064        -2.145926
 H         1.775095         2.001141        -0.666483
 H         5.007638         1.125032        -0.793278
 H         2.561988         0.544422         2.178751
