19
Iteration:   787charge 0 multiplicity 1
 C         4.282394        -1.795956         0.530510
 C         3.172737        -0.809030         0.245540
 O         2.042250        -1.196972        -0.447491
 C         1.400101         0.080070        -0.102597
 C        -0.112354        -0.134859        -0.069517
 C         2.245624         1.057137        -1.026195
 C         3.342338         0.633551        -0.037363
 O         4.566395         1.182547         0.125803
 C         2.423926         0.230979         1.135956
 H         4.159229        -2.343695         1.497237
 H         4.466314        -2.420682        -0.374054
 H         5.180941        -1.222094         0.718096
 H        -0.472136        -0.488092         0.939770
 H        -0.737099         0.737434        -0.240143
 H        -0.338874        -1.000063        -0.689570
 H         2.421761         0.857094        -2.078620
 H         2.030949         2.117920        -0.748810
 H         4.527892         2.159667         0.248786
 H         2.692757         0.256225         2.217212
