19
Iteration:  2567
 C         4.114810        -1.855119         0.774283
 C         3.163132        -0.776208         0.260850
 O         2.095842        -1.258070        -0.456662
 C         1.410611         0.025596        -0.102349
 C        -0.115983        -0.125616        -0.006911
 C         2.252139         1.104382        -0.983855
 C         3.398755         0.662958        -0.059138
 O         4.673644         1.278079        -0.117902
 C         2.407328         0.170248         1.059675
 H         3.767289        -2.352268         1.681938
 H         4.164838        -2.611139        -0.010908
 H         5.160230        -1.442939         0.856899
 H        -0.338560        -1.018886         0.661073
 H        -0.600483         0.841476         0.355846
 H        -0.425425        -0.307671        -1.024653
 H         2.395901         1.036724        -2.100399
 H         1.737675         2.025269        -0.567619
 H         4.622309         2.165230         0.344599
 H         2.372140         0.434471         2.134798
