19
Iteration:  1191charge 0 multiplicity 1
 C         4.177306        -1.860971         0.660933
 C         3.103172        -0.822392         0.269396
 O         2.020213        -1.286547        -0.554401
 C         1.457163         0.055854        -0.181311
 C        -0.018733        -0.084564         0.060087
 C         2.270990         1.012710        -1.016797
 C         3.361996         0.670782        -0.033222
 O         4.638551         1.344297         0.055769
 C         2.385171         0.198194         1.069726
 H         3.783566        -2.563459         1.490592
 H         4.511758        -2.345102        -0.245016
 H         5.143950        -1.356134         0.864682
 H        -0.124723        -0.362631         1.095809
 H        -0.646413         0.842453        -0.023513
 H        -0.350316        -0.935758        -0.503478
 H         2.403757         0.833389        -2.060888
 H         1.879392         2.089117        -0.924462
 H         4.667393         2.002232         0.761247
 H         2.078735         0.403536         2.026684
