19
Iteration:  2556
 C         4.095693        -1.853791         0.722343
 C         3.220070        -0.815490         0.381888
 O         2.168373        -1.302503        -0.579207
 C         1.376575         0.048776        -0.125631
 C        -0.076461        -0.080855         0.019381
 C         2.226072         1.029753        -0.869668
 C         3.391344         0.697807        -0.051208
 O         4.613172         1.259420        -0.156782
 C         2.386346         0.242992         1.106201
 H         3.753585        -2.338008         1.646711
 H         4.137106        -2.536542        -0.117804
 H         5.125518        -1.461915         1.002304
 H        -0.541692        -0.940981         0.650342
 H        -0.670997         0.878237         0.264843
 H        -0.431263        -0.375301        -0.983027
 H         2.403767         0.854243        -1.982295
 H         2.193713         2.199272        -0.885483
 H         4.613028         2.130968         0.267392
 H         2.214639         0.611656         2.162147
