19
Iteration:  2866charge 0 multiplicity 1
 C         4.349706        -1.836278         0.660860
 C         3.242453        -0.846663         0.327224
 O         1.972004        -1.331592        -0.404903
 C         1.391114         0.011331        -0.110766
 C        -0.140147        -0.036249        -0.059880
 C         2.117464         1.078995        -1.025180
 C         3.415882         0.692519        -0.124640
 O         4.651176         1.197415         0.100607
 C         2.397319         0.288196         1.023740
 H         4.054863        -2.763426         1.180974
 H         4.939456        -2.086037        -0.235990
 H         4.904071        -1.359082         1.429114
 H        -0.582641        -0.589534         0.731664
 H        -0.347628         0.949263        -0.001733
 H        -0.625453        -0.445423        -1.014748
 H         2.096247         0.991433        -2.160775
 H         1.759383         2.144032        -0.851075
 H         4.749777         2.124018        -0.098256
 H         2.526227         0.517393         2.055601
