19
Iteration:   182
 C         4.295653        -1.846317         0.698717
 C         3.187992        -0.767145         0.273104
 O         2.078790        -1.239908        -0.531712
 C         1.399535        -0.006832        -0.121894
 C        -0.120781        -0.026974        -0.112439
 C         2.145625         1.039491        -0.921439
 C         3.311252         0.814359         0.028800
 O         4.594980         1.205955         0.078676
 C         2.511181         0.179224         1.106255
 H         3.822733        -2.687138         1.291609
 H         4.647346        -2.209997        -0.386264
 H         5.166466        -1.378680         1.159769
 H        -0.534430        -0.875048         0.561986
 H        -0.547370         0.979238         0.398077
 H        -0.520621        -0.193855        -1.130692
 H         2.346218         0.576126        -1.959286
 H         1.552287         1.952670        -0.965025
 H         5.063914         0.994620        -0.768112
 H         2.191098         0.329185         2.098579
