19
Iteration:  2568charge 0 multiplicity 1
 C         4.118996        -1.851979         0.775780
 C         3.166573        -0.784961         0.256488
 O         2.081682        -1.253821        -0.450323
 C         1.416654         0.020100        -0.098604
 C        -0.112705        -0.131581        -0.012366
 C         2.250392         1.111250        -0.989441
 C         3.399414         0.665565        -0.061343
 O         4.677934         1.278166        -0.112414
 C         2.408665         0.174522         1.058886
 H         3.760498        -2.350912         1.657065
 H         4.172038        -2.631865         0.019518
 H         5.180720        -1.442313         0.853523
 H        -0.308930        -0.984065         0.665184
 H        -0.598548         0.831452         0.366380
 H        -0.483208        -0.298827        -1.065604
 H         2.353752         1.045225        -2.092262
 H         1.735355         2.001069        -0.581624
 H         4.617654         2.167316         0.347463
 H         2.378346         0.403999         2.130954
