19
Iteration:  4763charge 0 multiplicity 1
 C         4.371580        -1.760079         0.661772
 C         3.175389        -0.903906         0.255190
 O         1.973077        -1.386744        -0.367376
 C         1.385041        -0.027507        -0.081534
 C        -0.081569         0.065284        -0.092740
 C         2.215584         1.012709        -0.956380
 C         3.358955         0.644048        -0.100713
 O         4.572304         1.362590         0.073092
 C         2.387064         0.245296         1.069976
 H         4.367317        -2.304558         1.557184
 H         4.406334        -2.523631        -0.138246
 H         5.384757        -1.330672         0.557500
 H        -0.578537        -0.858213         0.200785
 H        -0.582823         0.864540         0.448570
 H        -0.365022         0.114934        -1.192753
 H         2.159392         0.706006        -2.027982
 H         1.885732         2.063208        -0.773746
 H         5.283194         1.263454        -0.553722
 H         2.293083         0.646829         2.033118
