19
Iteration:  3533
 C         4.329231        -1.740877         0.619588
 C         3.134515        -0.913753         0.306405
 O         2.035765        -1.337947        -0.329296
 C         1.389315         0.103223        -0.112693
 C        -0.133538        -0.053198        -0.167496
 C         2.247788         1.010749        -0.997700
 C         3.359248         0.643343         0.027113
 O         4.677138         1.216269        -0.106211
 C         2.304341         0.317069         1.158126
 H         3.851296        -2.495266         1.279769
 H         4.828739        -2.281283        -0.195644
 H         5.032777        -1.156037         1.191077
 H        -0.407815        -0.836038         0.606718
 H        -0.638137         0.867141         0.088393
 H        -0.459004        -0.505386        -1.243662
 H         2.409541         0.659086        -2.011914
 H         1.959099         2.048050        -0.817319
 H         4.744948         2.062619         0.362517
 H         2.431365         0.746124         2.165737
