19
Iteration:  1129
 C         4.202885        -1.753134         0.648018
 C         3.226701        -0.831730         0.177689
 O         1.985217        -1.315030        -0.454713
 C         1.379805        -0.127683        -0.009455
 C        -0.067848        -0.028682        -0.178684
 C         2.136878         0.980688        -0.893296
 C         3.374951         0.749586        -0.106904
 O         4.677998         1.213197         0.077850
 C         2.523457         0.289128         1.117087
 H         3.739449        -2.542226         1.212592
 H         4.739779        -2.256180        -0.201111
 H         4.998636        -1.139347         1.207833
 H        -0.678552        -0.842883         0.279729
 H        -0.481682         0.850857         0.443393
 H        -0.245414         0.376206        -1.226789
 H         2.120207         0.786364        -2.043218
 H         1.613710         1.917445        -0.691166
 H         4.497973         2.160518         0.214485
 H         2.498505         0.536438         2.239081
