19
Iteration:  1696
 C         4.239541        -1.984974         0.795020
 C         3.184270        -0.856423         0.266457
 O         2.005945        -1.234761        -0.445425
 C         1.397855         0.010755        -0.145418
 C        -0.067726        -0.059703         0.067614
 C         2.261550         1.033913        -1.050692
 C         3.398845         0.687099        -0.184286
 O         4.617527         1.366418         0.038405
 C         2.478703         0.276756         1.010095
 H         3.587588        -2.944603         1.097819
 H         4.807559        -2.478084         0.036737
 H         4.626774        -1.464547         1.673484
 H        -0.396334        -1.092188         0.451546
 H        -0.469389         0.850489         0.533161
 H        -0.590903        -0.246253        -1.045233
 H         2.011820         0.673499        -2.163832
 H         1.776836         1.962959        -0.762206
 H         4.469540         2.336909         0.065050
 H         2.225232         0.577388         1.975345
