19
Iteration:  4906charge 0 multiplicity 1
 C         4.377360        -1.742061         0.579029
 C         3.159656        -0.892286         0.316800
 O         2.014781        -1.314088        -0.396626
 C         1.411029         0.005383        -0.122816
 C        -0.104578         0.071204        -0.057023
 C         2.186673         1.004534        -1.053057
 C         3.354600         0.650198        -0.060482
 O         4.582208         1.278340         0.156705
 C         2.372335         0.213128         1.074919
 H         4.109326        -2.777431         0.782133
 H         4.828164        -1.964836        -0.450701
 H         5.189090        -1.431287         1.371572
 H        -0.511608        -0.346125         0.949369
 H        -0.455829         1.132266        -0.093318
 H        -0.684215        -0.529347        -0.700563
 H         2.258416         0.486741        -2.079808
 H         1.914293         2.112036        -1.162538
 H         5.140245         1.220221        -0.602281
 H         2.301368         0.515520         2.165776
