19
Iteration:  1248charge 0 multiplicity 1
 C         4.336974        -1.734351         0.582085
 C         3.117071        -0.922824         0.388218
 O         1.996868        -1.275936        -0.400509
 C         1.404482         0.029817        -0.073291
 C        -0.063102         0.005673        -0.137285
 C         2.199212         1.056139        -0.969068
 C         3.396582         0.652926        -0.081406
 O         4.613581         1.209341         0.025969
 C         2.392134         0.156440         1.111325
 H         4.178756        -2.752595         1.005412
 H         4.665407        -2.004753        -0.410857
 H         5.199010        -1.236978         1.126235
 H        -0.630672        -0.594970         0.591308
 H        -0.557320         0.977013        -0.073041
 H        -0.402928        -0.161638        -1.192379
 H         2.439931         0.916637        -2.070622
 H         1.870501         2.066962        -0.719911
 H         4.374617         2.165913         0.099858
 H         2.425134         0.321599         2.254025
