19
Iteration:   387
 C         4.346304        -1.712389         0.493401
 C         3.181794        -0.896882         0.366640
 O         1.951214        -1.273950        -0.486147
 C         1.378856        -0.018317        -0.052518
 C        -0.107727         0.004954        -0.148150
 C         2.234740         0.932491        -0.922133
 C         3.375907         0.647784        -0.069715
 O         4.600630         1.238899         0.079505
 C         2.422230         0.283510         1.147936
 H         4.336494        -2.670384         1.269089
 H         4.629092        -2.167424        -0.479844
 H         5.236604        -1.197426         0.886237
 H        -0.647497        -0.662100         0.581385
 H        -0.493677         0.980634         0.250038
 H        -0.398956        -0.170428        -1.179007
 H         2.332987         0.545968        -1.978944
 H         2.029609         2.008004        -0.963037
 H         4.530744         2.076895         0.607002
 H         2.356398         0.484528         2.187645
