19
Iteration:  3270
 C         4.103016        -1.826681         0.804861
 C         3.209148        -0.813405         0.357858
 O         2.053621        -1.286016        -0.514662
 C         1.418949         0.007506        -0.074596
 C        -0.077803        -0.016358         0.013613
 C         2.278550         0.936511        -1.029913
 C         3.389023         0.672418        -0.079851
 O         4.601712         1.337916        -0.103395
 C         2.438965         0.222460         1.005276
 H         3.600003        -2.672470         1.275917
 H         4.666093        -2.244846        -0.044402
 H         4.919092        -1.417347         1.500585
 H        -0.361934        -0.935407         0.549273
 H        -0.518023         0.761142         0.491202
 H        -0.588153        -0.210485        -0.947150
 H         2.370973         0.619722        -2.099958
 H         2.142756         2.060989        -0.946697
 H         4.610527         2.054385         0.596629
 H         2.288736         0.531871         1.994832
