19
Iteration:  1196
 C         4.173935        -1.848094         0.669399
 C         3.149910        -0.811936         0.284145
 O         2.012506        -1.306172        -0.532501
 C         1.457380         0.035763        -0.160576
 C        -0.029529        -0.071632         0.042668
 C         2.234348         1.055270        -1.049342
 C         3.380788         0.726766        -0.069724
 O         4.618280         1.309589         0.073341
 C         2.412136         0.168855         1.068676
 H         3.778304        -2.491305         1.377529
 H         4.532932        -2.376483        -0.258309
 H         5.155274        -1.396146         0.891160
 H        -0.184743        -0.278086         1.146097
 H        -0.714477         0.763792        -0.065948
 H        -0.463258        -0.906881        -0.609113
 H         2.367442         0.838869        -2.172088
 H         2.026366         2.090976        -0.993529
 H         4.641563         1.923967         0.829769
 H         2.152485         0.284015         2.228692
