19
Iteration:  3129charge 0 multiplicity 1
 C         4.201533        -1.830009         0.742340
 C         3.176393        -0.862830         0.241666
 O         1.957018        -1.298004        -0.368007
 C         1.409546         0.097814        -0.136410
 C        -0.066109        -0.031605         0.017176
 C         2.253417         0.927340        -1.072601
 C         3.428944         0.631040        -0.105387
 O         4.578299         1.331253         0.037777
 C         2.495147         0.230263         0.977200
 H         3.820891        -2.578431         1.406590
 H         4.723874        -2.316134        -0.071647
 H         4.907869        -1.100277         1.274876
 H        -0.406638        -0.984093         0.487909
 H        -0.370895         0.812473         0.527101
 H        -0.485488        -0.166951        -1.046818
 H         2.526020         0.772003        -2.076039
 H         1.879417         1.910986        -0.924067
 H         4.350927         2.288402         0.124846
 H         2.432550         0.449174         2.069913
