19
Iteration:  2531charge 0 multiplicity 1
 C         4.219338        -1.885860         0.717516
 C         3.213336        -0.842569         0.331750
 O         2.069799        -1.196053        -0.444012
 C         1.405499         0.006131        -0.145553
 C        -0.045553        -0.001314        -0.004704
 C         2.191432         0.973302        -1.015365
 C         3.360379         0.710381        -0.044169
 O         4.629511         1.252506        -0.084129
 C         2.366576         0.179733         1.118233
 H         3.840970        -2.716729         1.392916
 H         4.623315        -2.352099        -0.227058
 H         5.024017        -1.388108         1.190679
 H        -0.532359        -0.660418         0.774838
 H        -0.476767         0.986686         0.058365
 H        -0.394727        -0.358461        -0.943525
 H         2.451981         0.891459        -2.112339
 H         1.688689         2.019666        -0.892436
 H         4.488026         2.241632        -0.016217
 H         2.300856         0.319822         2.188904
