19
Iteration:  3428charge 0 multiplicity 1
 C         4.228523        -1.829193         0.770116
 C         3.159563        -0.805310         0.307111
 O         2.022756        -1.357970        -0.431309
 C         1.429810         0.064577        -0.135130
 C        -0.072216        -0.033629        -0.033450
 C         2.245080         1.048762        -1.064945
 C         3.351949         0.611946        -0.133907
 O         4.595764         1.266660         0.002813
 C         2.439851         0.249834         1.079259
 H         3.902394        -2.709231         1.402964
 H         4.645374        -2.239332        -0.180555
 H         4.956820        -1.254504         1.336819
 H        -0.385344        -0.621797         0.815013
 H        -0.470765         1.032152        -0.012200
 H        -0.474823        -0.443811        -0.919063
 H         2.181145         0.854857        -2.153629
 H         2.110169         2.131923        -0.972218
 H         4.464585         2.178257         0.403502
 H         2.514215         0.408276         2.121494
