19
Iteration:  3034
 C         4.389069        -1.677860         0.675468
 C         3.164473        -0.781405         0.258083
 O         1.936097        -1.301137        -0.376191
 C         1.343209         0.023140        -0.134066
 C        -0.150550        -0.011245        -0.083050
 C         2.139462         0.984062        -0.980840
 C         3.344234         0.673659        -0.090711
 O         4.727708         1.137363         0.031913
 C         2.445818         0.199252         1.077168
 H         3.933207        -2.427367         1.343245
 H         4.753155        -2.289125        -0.153120
 H         5.176444        -1.094640         1.237292
 H        -0.709464        -0.620839         0.651542
 H        -0.426398         1.071621        -0.217600
 H        -0.348227        -0.542375        -1.022000
 H         2.403683         0.685461        -2.084465
 H         1.960781         2.095241        -0.963020
 H         4.640512         2.022492         0.355564
 H         2.614420         0.363804         2.156269
