19
Iteration:  2714
 C         4.147025        -1.796011         0.727303
 C         3.154580        -0.785177         0.250857
 O         2.019676        -1.310190        -0.441165
 C         1.452151         0.035919        -0.233463
 C        -0.087571        -0.132390         0.010521
 C         2.234378         1.046136        -0.906572
 C         3.419702         0.715322        -0.029662
 O         4.671290         1.217585        -0.097598
 C         2.453078         0.283916         1.104906
 H         3.396123        -2.614360         0.910492
 H         4.811047        -2.155160        -0.103511
 H         4.836366        -1.482803         1.471794
 H        -0.231242        -0.839587         0.821578
 H        -0.585703         0.754690         0.216805
 H        -0.396961        -0.347620        -1.109881
 H         2.210465         0.856189        -1.981713
 H         1.805277         2.019845        -0.720244
 H         4.540925         2.054809         0.323177
 H         2.017344         0.387704         2.157231
