19
Iteration:    98charge 0 multiplicity 1
 C         4.120407        -1.838752         0.565718
 C         3.210013        -0.790733         0.202918
 O         2.147084        -1.312277        -0.532010
 C         1.399280        -0.090092        -0.151733
 C        -0.112224         0.052671        -0.020521
 C         2.186977         0.891036        -0.947727
 C         3.349236         0.720258        -0.018873
 O         4.549445         1.440030         0.175669
 C         2.495517         0.198015         1.126242
 H         3.599911        -2.593108         1.112712
 H         4.527116        -2.317029        -0.343318
 H         4.807192        -1.463195         1.233790
 H        -0.434551        -0.563224         0.805875
 H        -0.173993         1.111568         0.218932
 H        -0.779877        -0.132558        -0.777129
 H         2.336822         0.450978        -1.914242
 H         1.810400         1.895389        -1.040222
 H         5.262025         1.010883        -0.296234
 H         2.839532         0.421008         2.090186
