19
Iteration:  2181
 C         4.236856        -1.743625         0.609536
 C         3.138358        -0.870974         0.384777
 O         2.037553        -1.353357        -0.464920
 C         1.364365         0.001911        -0.220510
 C        -0.037532         0.029847         0.012656
 C         2.271947         0.967836        -1.000962
 C         3.344953         0.701093         0.016541
 O         4.701733         1.265509        -0.030646
 C         2.352334         0.262385         1.076249
 H         3.868869        -2.443375         1.382275
 H         4.522531        -2.461762        -0.185108
 H         5.215807        -1.201296         0.863537
 H        -0.390293        -0.670612         0.906905
 H        -0.370509         0.993782         0.273472
 H        -0.638901        -0.243946        -0.843671
 H         2.434419         0.426569        -1.913724
 H         1.522360         1.801641        -1.198061
 H         4.594907         2.054696         0.489876
 H         2.093645         0.531776         2.067937
