19
Iteration:   263charge 0 multiplicity 1
 C         4.197318        -1.835269         0.552881
 C         3.216993        -0.769702         0.335449
 O         2.103182        -1.296501        -0.492257
 C         1.393288        -0.016193        -0.091970
 C        -0.049266         0.048695        -0.020478
 C         2.213700         0.954119        -1.048255
 C         3.328977         0.656749        -0.049858
 O         4.543050         1.351921         0.050490
 C         2.437897         0.225135         1.116840
 H         3.646987        -2.644735         1.047445
 H         4.607720        -2.269548        -0.381238
 H         5.100023        -1.726707         1.164843
 H        -0.342381        -0.683596         0.691263
 H        -0.413220         1.020472         0.108457
 H        -0.365576        -0.365919        -1.025135
 H         2.248236         0.750724        -2.061888
 H         1.772976         1.927777        -0.802120
 H         4.901227         1.227548         0.975860
 H         2.368070         0.289470         2.269096
