19
Iteration:  3321charge 0 multiplicity 1
 C         4.197677        -1.722366         0.718510
 C         3.162328        -0.817718         0.207951
 O         2.020654        -1.383307        -0.388161
 C         1.416522        -0.047077        -0.100098
 C        -0.037383         0.022072        -0.066471
 C         2.187131         1.010378        -1.087735
 C         3.341240         0.673677        -0.070604
 O         4.696363         1.220384         0.046757
 C         2.437797         0.259057         1.046329
 H         3.697592        -2.447533         1.364952
 H         4.874536        -2.260123         0.053751
 H         4.932433        -1.123389         1.306187
 H        -0.612236        -0.734688         0.546485
 H        -0.224463         1.052033         0.537517
 H        -0.587159        -0.001950        -0.982154
 H         2.333282         0.589143        -2.083537
 H         1.661154         1.956135        -0.968322
 H         4.358777         2.140485         0.238167
 H         2.366868         0.456955         2.128865
