19
Iteration:  1100charge 0 multiplicity 1
 C         4.453041        -1.786550         0.659317
 C         3.150804        -0.910860         0.355909
 O         2.015130        -1.308769        -0.389934
 C         1.361545         0.109073        -0.115368
 C        -0.122603         0.050000        -0.177026
 C         2.222689         1.084161        -0.944214
 C         3.352072         0.626810        -0.030720
 O         4.587907         1.223179        -0.089205
 C         2.369638         0.092013         1.134335
 H         4.190195        -2.703770         1.135067
 H         5.119676        -1.797584        -0.286352
 H         5.159145        -1.130256         1.175339
 H        -0.574955        -0.909338         0.165343
 H        -0.540816         0.631369         0.572132
 H        -0.580030         0.326859        -1.136575
 H         2.276647         0.919087        -2.024325
 H         2.016313         2.152148        -0.905400
 H         4.619615         1.887170         0.598267
 H         1.948616         0.374830         2.242177
