19
Iteration:  2351
 C         4.208303        -1.800956         0.645522
 C         3.157866        -0.809323         0.369045
 O         2.058212        -1.233716        -0.470888
 C         1.415786         0.059502        -0.127882
 C        -0.123229         0.007311        -0.011594
 C         2.278204         0.897455        -0.997884
 C         3.407297         0.645207        -0.108661
 O         4.607915         1.251264        -0.037138
 C         2.343784         0.172540         1.122014
 H         4.140283        -2.510484         1.466311
 H         4.567296        -2.267490        -0.265794
 H         5.184229        -1.275475         0.913578
 H        -0.189234        -0.632953         0.740862
 H        -0.386143         1.026029         0.312563
 H        -0.706254        -0.429534        -0.801535
 H         2.495633         0.600820        -2.085515
 H         1.908259         1.913509        -0.814147
 H         4.664457         2.079665         0.413707
 H         2.136212         0.716409         2.014959
