19
Iteration:  1850
 C         4.229477        -1.877909         0.720415
 C         3.226141        -0.887520         0.215764
 O         1.975596        -1.363672        -0.347971
 C         1.429950         0.083635        -0.169842
 C        -0.112055        -0.045374        -0.026246
 C         2.204115         1.052199        -1.067138
 C         3.393327         0.693210        -0.099241
 O         4.600622         1.300697         0.066733
 C         2.491679         0.233697         1.002807
 H         3.658825        -2.634382         1.248210
 H         4.877852        -2.197993        -0.103092
 H         4.875416        -1.239335         1.286636
 H        -0.192095        -0.753945         0.705679
 H        -0.390571         0.893434         0.446609
 H        -0.612006        -0.112891        -1.010242
 H         2.128607         0.924554        -2.180363
 H         1.755460         2.025673        -0.850657
 H         4.602781         2.231067         0.411477
 H         2.456833         0.406800         2.082987
