19
Iteration:  2668charge 0 multiplicity 1
 C         4.345710        -1.769367         0.574138
 C         3.213842        -0.849559         0.344588
 O         1.954222        -1.316195        -0.377475
 C         1.353712         0.025081        -0.043431
 C        -0.118633         0.101007        -0.129120
 C         2.209303         0.874096        -1.012925
 C         3.390360         0.631156        -0.089781
 O         4.585412         1.223132         0.056575
 C         2.451410         0.278917         1.077688
 H         3.973524        -2.773284         0.748877
 H         5.119096        -1.818370        -0.221604
 H         4.956339        -1.402947         1.424663
 H        -0.252682        -0.434036         0.743717
 H        -0.589049         1.082537         0.014472
 H        -0.466985        -0.317733        -1.139468
 H         2.233129         0.692463        -2.111753
 H         1.924189         1.960439        -0.888755
 H         4.464189         2.155535         0.263414
 H         2.581783         0.406553         2.109707
