19
Iteration:   733charge 0 multiplicity 1
 C         4.358268        -1.738869         0.521243
 C         3.186744        -0.796160         0.418510
 O         2.055316        -1.383362        -0.414105
 C         1.477241        -0.092732        -0.199349
 C        -0.059371         0.100021        -0.085188
 C         2.204450         1.053977        -0.954184
 C         3.292130         0.652270        -0.062569
 O         4.492201         1.234136         0.015801
 C         2.395586         0.140587         1.088758
 H         3.933227        -2.661393         1.123782
 H         4.751052        -2.110140        -0.477808
 H         5.102514        -1.225677         1.123667
 H        -0.478134        -0.697983         0.598711
 H        -0.243450         0.996245         0.529728
 H        -0.660470         0.350972        -0.933912
 H         2.580355         0.855595        -1.950922
 H         1.921752         2.120895        -0.698501
 H         4.569177         1.955917         0.690743
 H         2.231029         0.527409         2.094208
