19
Iteration:    74charge 0 multiplicity 1
 C         4.379112        -1.829508         0.541743
 C         3.198844        -0.898032         0.292668
 O         1.944616        -1.311742        -0.382012
 C         1.413564         0.013361        -0.059474
 C        -0.096079         0.022623        -0.093212
 C         2.191146         1.047035        -0.964338
 C         3.354275         0.716697        -0.079571
 O         4.569458         1.370333         0.168021
 C         2.435881         0.157247         1.020039
 H         4.007169        -2.617872         1.184080
 H         4.688747        -2.374371        -0.424578
 H         5.139521        -1.411948         1.153707
 H        -0.599052        -0.811352         0.434815
 H        -0.516554         1.090562         0.017878
 H        -0.345951        -0.240561        -1.097150
 H         2.275584         0.752522        -2.026792
 H         1.841465         2.064312        -0.850342
 H         5.218830         1.107899        -0.493065
 H         2.269639         0.322429         2.102038
