19
Iteration:  1790charge 0 multiplicity 1
 C         4.336896        -1.713952         0.545218
 C         3.211109        -0.779965         0.298510
 O         1.951234        -1.338536        -0.316662
 C         1.372840        -0.017127        -0.053394
 C        -0.098080        -0.021001        -0.139807
 C         2.296642         1.040076        -0.991154
 C         3.352651         0.679423        -0.051444
 O         4.624644         1.146738         0.039053
 C         2.350236         0.238961         1.070637
 H         4.284393        -2.412786         1.431175
 H         4.469441        -2.403064        -0.328565
 H         5.286204        -1.117464         0.828318
 H        -0.810121        -0.603260         0.514401
 H        -0.401581         1.045777        -0.065992
 H        -0.461089        -0.370063        -1.077431
 H         2.389264         0.712644        -1.999881
 H         1.790754         2.027424        -0.858214
 H         4.757150         2.090691         0.121844
 H         2.342771         0.538852         2.197967
