19
Iteration:  3286charge 0 multiplicity 1
 C         4.238300        -1.846895         0.830701
 C         3.130538        -0.881490         0.294578
 O         2.078802        -1.239102        -0.463436
 C         1.380698         0.061839        -0.212339
 C        -0.111297        -0.053319         0.017307
 C         2.235749         0.995660        -1.060498
 C         3.483311         0.522579        -0.131069
 O         4.595155         1.374163        -0.095778
 C         2.385107         0.238326         1.104768
 H         3.775379        -2.700194         1.470257
 H         4.864952        -2.369184         0.068513
 H         4.774341        -1.331809         1.575698
 H        -0.385495        -0.918005         0.654193
 H        -0.189814         0.998949         0.628634
 H        -0.697361         0.170866        -0.913010
 H         2.212620         0.792112        -2.161133
 H         1.897703         2.016174        -1.091453
 H         4.462278         1.815641         0.809508
 H         2.327680         0.489725         2.227697
