19
Iteration:  4027charge 0 multiplicity 1
 C         4.267364        -1.717774         0.755937
 C         3.156255        -0.826658         0.289726
 O         2.030261        -1.339780        -0.365757
 C         1.424513        -0.072970        -0.181910
 C        -0.087246        -0.088154        -0.077423
 C         2.155646         1.069012        -0.998992
 C         3.317352         0.687036        -0.142718
 O         4.638544         1.171501        -0.008503
 C         2.494342         0.281843         1.047962
 H         3.863816        -2.441190         1.450072
 H         4.754416        -2.126332        -0.127511
 H         4.757210        -0.953998         1.440446
 H        -0.522796        -0.986465         0.364740
 H        -0.273669         0.844210         0.561698
 H        -0.464418         0.017771        -1.091637
 H         2.305418         1.100228        -2.113836
 H         1.766453         2.035779        -0.506684
 H         4.786733         2.084048         0.223198
 H         2.319891         0.682449         1.930290
