19
Iteration:   134charge 0 multiplicity 1
 C         4.222766        -1.964374         0.712514
 C         3.075074        -0.974563         0.302515
 O         2.018111        -1.289008        -0.513950
 C         1.387785         0.119807        -0.274619
 C        -0.017537        -0.073175         0.057367
 C         2.223186         1.160701        -1.019704
 C         3.424124         0.657355        -0.093904
 O         4.533039         1.470936         0.161892
 C         2.476122         0.147746         0.985429
 H         3.767798        -2.833021         1.270875
 H         4.872675        -2.322347         0.006319
 H         4.885543        -1.402213         1.470970
 H         0.078747        -0.839247         0.797612
 H        -0.393290         0.743076         0.559388
 H        -0.657343        -0.498529        -0.785000
 H         2.210719         1.009223        -2.112338
 H         1.950305         2.207435        -0.696260
 H         5.150816         1.265261        -0.532559
 H         2.540436         0.452251         2.073227
