19
Iteration:  3528charge 0 multiplicity 1
 C         4.299871        -1.770174         0.636282
 C         3.199044        -0.873919         0.322672
 O         2.013853        -1.345694        -0.306316
 C         1.385196         0.113255        -0.109269
 C        -0.169415        -0.078921        -0.173014
 C         2.262440         1.041786        -1.017151
 C         3.405859         0.641034        -0.005010
 O         4.635182         1.212100        -0.098516
 C         2.327812         0.273984         1.127230
 H         4.060522        -2.555163         1.368319
 H         4.782229        -2.210937        -0.249761
 H         4.931646        -1.075590         1.288590
 H        -0.453817        -0.874119         0.492441
 H        -0.595368         0.905647         0.166215
 H        -0.502216        -0.388404        -1.069257
 H         2.438536         0.879192        -2.111445
 H         1.991241         2.104346        -0.878203
 H         4.799310         2.068501         0.378479
 H         2.362347         0.677154         2.168265
