19
Iteration:  3275
 C         4.149176        -1.838408         0.811628
 C         3.186272        -0.839902         0.366895
 O         2.063896        -1.266399        -0.508209
 C         1.424206         0.036569        -0.137130
 C        -0.085720        -0.050879         0.017736
 C         2.257545         0.962088        -1.017945
 C         3.418870         0.615980        -0.144039
 O         4.583052         1.358334        -0.087254
 C         2.430583         0.219352         1.036714
 H         3.449883        -2.591057         1.300032
 H         4.748091        -2.210381        -0.045735
 H         4.819611        -1.321075         1.438988
 H        -0.480580        -0.901498         0.608863
 H        -0.495598         0.924235         0.631277
 H        -0.622892        -0.105041        -0.975859
 H         2.377921         0.436295        -1.967878
 H         2.231138         2.022085        -0.888510
 H         4.774838         2.032884         0.564841
 H         2.209518         0.550905         2.100921
