19
Iteration:  1154
 C         4.203248        -1.863451         0.681111
 C         3.238034        -0.836492         0.295249
 O         2.080013        -1.271206        -0.480965
 C         1.383455         0.074989        -0.142093
 C        -0.097217        -0.060937        -0.006738
 C         2.221640         1.082063        -1.034987
 C         3.385803         0.707919        -0.068447
 O         4.614933         1.271105         0.069856
 C         2.412456         0.163535         1.078914
 H         3.738796        -2.629849         1.302203
 H         4.377718        -2.465075        -0.309757
 H         5.135598        -1.514118         1.133899
 H        -0.191844        -0.860716         0.775512
 H        -0.693091         0.765114         0.299702
 H        -0.523602        -0.307411        -1.007018
 H         2.346114         0.870848        -2.124144
 H         1.746591         2.045920        -0.857658
 H         4.402162         2.197124        -0.067648
 H         2.310951         0.256193         2.254768
