19
Iteration:  4959charge 0 multiplicity 1
 C         4.185563        -1.866329         0.589907
 C         3.156174        -0.817287         0.335120
 O         2.026269        -1.241096        -0.415136
 C         1.432031         0.000875        -0.055426
 C        -0.124445        -0.058424        -0.154696
 C         2.210614         1.018071        -0.986799
 C         3.347479         0.775721        -0.042440
 O         4.658947         1.345185         0.055147
 C         2.497796         0.218267         1.116786
 H         3.878381        -2.301294         1.512589
 H         4.234014        -2.830186        -0.034325
 H         5.311266        -1.591189         0.748965
 H        -0.326936        -1.021885         0.343048
 H        -0.944811         0.516238         0.243895
 H        -0.502322        -0.327867        -1.162221
 H         2.009086         0.865590        -2.050884
 H         1.841196         2.054467        -0.718128
 H         5.219901         0.832605        -0.502370
 H         2.586994         0.468786         2.214467
