19
Iteration:  3412
 C         4.266082        -1.799256         0.693042
 C         3.259373        -0.851965         0.288129
 O         1.997934        -1.219119        -0.393767
 C         1.363659         0.001418        -0.086586
 C        -0.152806        -0.016260        -0.149728
 C         2.155191         0.924839        -0.975158
 C         3.391072         0.708339        -0.069316
 O         4.664582         1.199085         0.008787
 C         2.492652         0.295435         1.031931
 H         3.688087        -2.451003         1.336445
 H         4.687647        -2.406788        -0.115562
 H         5.138794        -1.402254         1.272836
 H        -0.542283        -0.524804         0.765975
 H        -0.564741         0.977042        -0.203633
 H        -0.478456        -0.735846        -0.985550
 H         2.310335         0.585185        -2.027436
 H         1.680205         1.946898        -0.861492
 H         4.522635         2.025282         0.566400
 H         2.390647         0.721213         2.079529
