19
Iteration:  1691charge 0 multiplicity 1
 C         4.215221        -1.991581         0.823229
 C         3.214205        -0.838429         0.203188
 O         2.017279        -1.229604        -0.414931
 C         1.379361         0.004273        -0.111403
 C        -0.087370        -0.053231         0.010463
 C         2.260916         1.025549        -1.056320
 C         3.365192         0.651153        -0.176337
 O         4.587559         1.351730         0.063569
 C         2.513698         0.281266         0.964271
 H         3.625829        -2.858662         0.957093
 H         4.968475        -2.423675         0.086685
 H         4.849723        -1.474559         1.595325
 H        -0.361866        -0.992995         0.482532
 H        -0.566376         0.769344         0.568482
 H        -0.648372        -0.115779        -0.832893
 H         2.147656         0.732881        -2.042527
 H         1.846178         1.990452        -0.682304
 H         4.464023         2.318973        -0.003391
 H         2.398323         0.719574         2.061212
