19
Iteration:  2787charge 0 multiplicity 1
 C         4.256548        -1.722533         0.647343
 C         3.214342        -0.879011         0.287112
 O         1.967207        -1.380004        -0.349810
 C         1.431675        -0.053544        -0.118030
 C        -0.089492         0.016410        -0.106474
 C         2.169693         1.051613        -1.033240
 C         3.378767         0.685267        -0.077376
 O         4.629683         1.243977         0.052769
 C         2.480353         0.238131         1.024096
 H         3.876237        -2.343958         1.484143
 H         4.329866        -2.391623        -0.238873
 H         5.221059        -1.227001         0.751068
 H        -0.437154        -0.663754         0.616954
 H        -0.395766         0.984401         0.340426
 H        -0.515291         0.024757        -1.123197
 H         2.502665         0.937968        -2.095784
 H         1.723769         2.074721        -0.758954
 H         4.310245         1.978444         0.594927
 H         2.464542         0.322943         2.158342
