19
Iteration:  3718charge 0 multiplicity 1
 C         4.307287        -1.649957         0.646828
 C         3.171203        -0.753254         0.293928
 O         2.124895        -1.389243        -0.395349
 C         1.431923         0.004311        -0.068491
 C        -0.081000        -0.013878        -0.073853
 C         2.191924         0.982870        -1.004124
 C         3.299716         0.659655        -0.074235
 O         4.643597         1.132475        -0.025389
 C         2.296522         0.313476         1.120483
 H         3.757434        -2.394106         1.328568
 H         4.632949        -2.238215        -0.260935
 H         5.061971        -1.285817         1.276803
 H        -0.645865        -0.619242         0.622970
 H        -0.399967         0.941926         0.111982
 H        -0.504984        -0.336459        -1.054915
 H         2.336937         0.702943        -2.078244
 H         2.029927         2.069742        -0.845753
 H         4.680848         2.077047        -0.136256
 H         2.079946         0.230337         2.141275
