19
Iteration:  4457
 C         4.342666        -1.785164         0.797750
 C         3.243119        -0.807594         0.295619
 O         2.015960        -1.327643        -0.519370
 C         1.373624         0.090569        -0.163895
 C        -0.080526         0.000716        -0.024895
 C         2.219280         0.974840        -0.945461
 C         3.344361         0.688121         0.008522
 O         4.590298         1.209497        -0.049332
 C         2.348267         0.208793         1.014828
 H         3.833402        -2.585740         1.343840
 H         5.162277        -2.112362        -0.018057
 H         4.999470        -1.267684         1.527498
 H        -0.346037        -0.700568         0.733518
 H        -0.642133         0.890818         0.314150
 H        -0.660116        -0.424198        -0.954722
 H         2.525199         0.717123        -1.983339
 H         1.956152         2.025196        -0.847295
 H         4.457174         2.133876        -0.427855
 H         2.254950         0.332077         2.075195
