19
Iteration:  2031charge 0 multiplicity 1
 C         4.195059        -1.765065         0.757670
 C         3.204735        -0.834018         0.272549
 O         1.981241        -1.317964        -0.512472
 C         1.439506         0.020440        -0.052851
 C        -0.053697        -0.016980        -0.005900
 C         2.170305         1.050252        -1.055890
 C         3.411707         0.593760        -0.164458
 O         4.633650         1.279995         0.050373
 C         2.466096         0.189071         1.045444
 H         3.938188        -2.482340         1.518781
 H         4.628950        -2.149926        -0.152059
 H         4.979435        -1.399431         1.354386
 H        -0.447317        -0.714374         0.869890
 H        -0.440169         0.950023         0.265469
 H        -0.569405        -0.184604        -0.907721
 H         2.149166         0.752093        -2.144977
 H         1.725946         2.037777        -0.861238
 H         4.526994         2.181299         0.308330
 H         2.400086         0.328062         2.035169
