19
Iteration:  2333charge 0 multiplicity 1
 C         4.323826        -1.738199         0.642473
 C         3.168879        -0.822348         0.299008
 O         1.981474        -1.357441        -0.433660
 C         1.322005         0.002540        -0.069260
 C        -0.097055         0.016190         0.013836
 C         2.198219         1.006615        -1.108412
 C         3.385025         0.643840        -0.075793
 O         4.662928         1.183802         0.078851
 C         2.472906         0.320792         1.018343
 H         3.892625        -2.437386         1.319935
 H         4.716430        -2.237553        -0.252558
 H         5.084128        -1.103942         1.144389
 H        -0.701792        -0.750646         0.681194
 H        -0.468637         1.005196         0.162074
 H        -0.445030        -0.268244        -1.096734
 H         1.997674         0.570986        -2.095467
 H         1.946185         2.100022        -1.086668
 H         4.590365         2.001311         0.550636
 H         2.525340         0.304846         2.166217
