19
Iteration:  2573charge 0 multiplicity 1
 C         4.158870        -1.826651         0.766959
 C         3.204207        -0.847828         0.248112
 O         1.990467        -1.240433        -0.428224
 C         1.435139        -0.008351        -0.092975
 C        -0.089317        -0.145210        -0.065880
 C         2.232219         1.127348        -0.996164
 C         3.405085         0.696231        -0.086040
 O         4.696474         1.275585        -0.073437
 C         2.427413         0.216927         1.058514
 H         3.707893        -2.330051         1.668321
 H         4.222814        -2.746977         0.119817
 H         5.152081        -1.486043         0.889782
 H        -0.222088        -0.896303         0.724150
 H        -0.533042         0.695649         0.403403
 H        -0.703030        -0.269059        -1.034051
 H         2.111745         1.063713        -2.082036
 H         1.749814         2.052326        -0.677330
 H         4.588116         2.133698         0.331129
 H         2.389973         0.238774         2.142308
