19
Iteration:  1280charge 0 multiplicity 1
 C         4.310453        -1.696619         0.553199
 C         3.139428        -0.768005         0.337192
 O         2.053913        -1.293231        -0.479998
 C         1.395563         0.005763        -0.091423
 C        -0.126493        -0.022449        -0.093671
 C         2.220911         0.930765        -0.871804
 C         3.369903         0.683536         0.054066
 O         4.702369         1.171487        -0.046967
 C         2.286369         0.239109         1.131872
 H         3.863435        -2.691733         0.974090
 H         4.597814        -1.944961        -0.480567
 H         5.053882        -1.375967         1.390497
 H        -0.558181        -1.011183         0.024393
 H        -0.252227         0.824265         0.607150
 H        -0.498876         0.167025        -1.134717
 H         2.504351         0.581319        -1.914236
 H         1.807617         1.960187        -0.993861
 H         4.721505         2.145141        -0.093350
 H         2.239188         0.389912         2.280575
