19
Iteration:  4952charge 0 multiplicity 1
 C         4.220504        -1.881863         0.582221
 C         3.194338        -0.776223         0.311428
 O         1.967215        -1.270203        -0.353067
 C         1.360532         0.083306        -0.090036
 C        -0.120984        -0.105323        -0.148677
 C         2.198979         1.021152        -0.969762
 C         3.388839         0.757438        -0.051662
 O         4.681422         1.340688         0.087832
 C         2.495039         0.217246         1.087987
 H         3.926188        -2.481647         1.509394
 H         4.149452        -2.597845        -0.256294
 H         5.233057        -1.497062         0.782978
 H        -0.198629        -1.142131         0.322474
 H        -0.818123         0.695460         0.220566
 H        -0.258156        -0.385837        -1.177148
 H         2.157153         0.777034        -2.068508
 H         1.764351         2.037361        -0.816799
 H         5.140186         0.844239        -0.599389
 H         2.410205         0.414781         2.138342
