19
Iteration:     2
 C         4.267948        -1.805399         0.576839
 C         3.175719        -0.839874         0.253089
 O         2.024643        -1.265539        -0.479409
 C         1.401842         0.006348        -0.109839
 C        -0.083490        -0.030470        -0.035355
 C         2.204874         1.033892        -0.959043
 C         3.366431         0.662522        -0.035093
 O         4.577480         1.319611         0.145954
 C         2.440982         0.196887         1.071164
 H         3.892701        -2.611197         1.248802
 H         4.633819        -2.287166        -0.311913
 H         5.050297        -1.279566         1.165163
 H        -0.408764        -0.824399         0.636451
 H        -0.471142         0.925990         0.246997
 H        -0.492833        -0.305123        -1.052927
 H         2.253043         0.849595        -2.042485
 H         1.857499         2.062979        -0.764227
 H         5.161886         1.066787        -0.572461
 H         2.325905         0.421177         2.105307
