19
Iteration:  3543
 C         4.309413        -1.731235         0.640225
 C         3.120116        -0.768764         0.356761
 O         1.997656        -1.297486        -0.429718
 C         1.363861         0.011743        -0.089121
 C        -0.045528        -0.035942        -0.153606
 C         2.231725         0.911593        -0.923988
 C         3.303462         0.640519         0.005379
 O         4.704037         1.185616        -0.085445
 C         2.397103         0.340379         1.147794
 H         4.019726        -2.594590         1.250809
 H         4.664633        -2.149370        -0.320045
 H         5.210405        -1.268635         1.066889
 H        -0.425977        -0.685621         0.696002
 H        -0.624253         0.875003        -0.187296
 H        -0.295148        -0.521741        -1.230390
 H         2.271565         0.545109        -1.931133
 H         1.870070         1.927590        -0.976474
 H         4.535369         2.062836         0.343769
 H         2.117471         0.742037         2.189315
