19
Iteration:  4964
 C         4.169761        -1.875776         0.623941
 C         3.161682        -0.870354         0.311866
 O         2.077990        -1.230271        -0.473827
 C         1.455619        -0.027527        -0.042393
 C        -0.123025        -0.076237        -0.159347
 C         2.181437         1.049302        -0.965187
 C         3.357060         0.739289        -0.032066
 O         4.609987         1.346087         0.024262
 C         2.493532         0.256013         1.152034
 H         3.878196        -2.182182         1.711427
 H         4.189482        -2.731855        -0.003260
 H         5.178796        -1.537595         0.657387
 H        -0.507099        -0.973714         0.459776
 H        -0.805851         0.674376         0.379217
 H        -0.554170        -0.099308        -1.179764
 H         2.163247         0.849182        -2.073384
 H         1.861107         2.058204        -0.700310
 H         5.352978         0.817691        -0.435054
 H         2.615241         0.512128         2.171381
