19
Iteration:  2192charge 0 multiplicity 1
 C         4.178334        -1.782515         0.684618
 C         3.107692        -0.790451         0.287493
 O         2.024227        -1.266033        -0.473985
 C         1.457326        -0.075400        -0.108990
 C        -0.065383        -0.022563         0.001428
 C         2.253399         0.924900        -1.060804
 C         3.385681         0.700658        -0.044493
 O         4.666724         1.262164        -0.015579
 C         2.360314         0.246933         1.084027
 H         4.002249        -2.450660         1.534955
 H         4.354546        -2.282731        -0.279974
 H         5.075523        -1.152458         0.964815
 H        -0.316154        -0.739163         0.883658
 H        -0.255434         0.963565         0.339779
 H        -0.672993        -0.303240        -0.848766
 H         2.469976         0.668036        -2.088862
 H         1.940834         2.009267        -0.972610
 H         4.671901         2.064998         0.503837
 H         2.277157         0.427437         2.128486
