19
Iteration:  3436charge 0 multiplicity 1
 C         4.187464        -1.791662         0.734461
 C         3.141731        -0.924329         0.377739
 O         2.045053        -1.354424        -0.439058
 C         1.405607         0.107503        -0.150984
 C        -0.042769        -0.025863         0.034941
 C         2.297015         1.031146        -1.069172
 C         3.405961         0.678951        -0.136817
 O         4.600594         1.282348        -0.017281
 C         2.387956         0.203712         1.007438
 H         3.746197        -2.574562         1.454950
 H         4.835014        -2.239513        -0.070978
 H         4.863436        -1.193654         1.313772
 H        -0.450895        -0.665532         0.800464
 H        -0.339802         0.958872         0.186473
 H        -0.410409        -0.395200        -0.977612
 H         2.346847         0.844807        -2.196797
 H         1.834293         2.047737        -0.753745
 H         4.231533         2.150385         0.292090
 H         2.352152         0.426167         2.133575
