19
Iteration:  3269charge 0 multiplicity 1
 C         4.099923        -1.827467         0.804890
 C         3.210051        -0.808820         0.350832
 O         2.052394        -1.289199        -0.513278
 C         1.417260         0.003037        -0.068339
 C        -0.076622        -0.015549         0.009733
 C         2.281007         0.934303        -1.033962
 C         3.385868         0.680296        -0.066824
 O         4.605962         1.334301        -0.105856
 C         2.439379         0.225110         1.001982
 H         3.637599        -2.676155         1.272379
 H         4.643865        -2.250394        -0.038008
 H         4.917682        -1.444024         1.506108
 H        -0.333383        -0.940515         0.547458
 H        -0.536345         0.776091         0.484756
 H        -0.561763        -0.213189        -0.928110
 H         2.365111         0.663673        -2.115291
 H         2.107351         2.051376        -0.966512
 H         4.573662         2.053190         0.599406
 H         2.303864         0.534592         2.012473
