19
Iteration:  4749charge 0 multiplicity 1
 C         4.360386        -1.726592         0.565542
 C         3.215363        -0.852676         0.233926
 O         1.961394        -1.421243        -0.394036
 C         1.453357        -0.024234        -0.050316
 C        -0.063742         0.131022        -0.084685
 C         2.149499         0.882993        -1.040709
 C         3.342904         0.622599        -0.013775
 O         4.561167         1.391146         0.136876
 C         2.398754         0.215691         1.070518
 H         4.041229        -2.017514         1.592184
 H         4.640499        -2.647646        -0.024764
 H         5.093597        -0.992285         0.663851
 H        -0.500860        -0.549163         0.543883
 H        -0.108709         1.134292         0.302998
 H        -0.417019         0.174086        -1.158200
 H         2.316370         0.692631        -2.137791
 H         1.766942         1.895702        -0.906525
 H         5.010364         0.920243        -0.619662
 H         2.243243         0.448120         2.159986
