19
Iteration:  1105charge 0 multiplicity 1
 C         4.403325        -1.737213         0.644574
 C         3.200861        -0.926715         0.350101
 O         2.043447        -1.316931        -0.379044
 C         1.315333         0.084039        -0.131402
 C        -0.164979         0.042978        -0.189541
 C         2.204153         1.057585        -0.910986
 C         3.359549         0.638741        -0.070104
 O         4.609484         1.219995        -0.063296
 C         2.411500         0.113675         1.129057
 H         4.116770        -2.728514         1.128131
 H         4.956365        -1.929378        -0.239461
 H         5.086855        -1.125512         1.266717
 H        -0.527654        -0.916248         0.149388
 H        -0.688206         0.782554         0.571831
 H        -0.448463         0.464824        -1.167667
 H         2.125556         0.854616        -2.000975
 H         2.100812         2.183254        -0.751782
 H         4.563828         1.944445         0.617522
 H         2.241088         0.299966         2.099167
