19
Iteration:  3553charge 0 multiplicity 1
 C         4.253084        -1.721876         0.636758
 C         3.200144        -0.765374         0.452991
 O         1.987541        -1.256446        -0.437614
 C         1.432751        -0.026929        -0.045828
 C        -0.095262        -0.042233        -0.150375
 C         2.174308         0.920859        -1.012227
 C         3.415594         0.704410        -0.057397
 O         4.627765         1.150997        -0.034454
 C         2.413494         0.274630         1.115972
 H         4.091487        -2.572017         1.277703
 H         4.428757        -2.005830        -0.403724
 H         5.128729        -1.142691         1.041378
 H        -0.658124        -0.609109         0.648794
 H        -0.389281         0.994821        -0.217153
 H        -0.294264        -0.672935        -1.089691
 H         2.340882         0.560420        -2.011890
 H         1.844856         1.953327        -0.951514
 H         4.709910         2.121516         0.212912
 H         2.154170         0.498778         2.229535
