19
Iteration:   730charge 0 multiplicity 1
 C         4.343114        -1.771279         0.539001
 C         3.184289        -0.847412         0.436067
 O         2.063366        -1.374267        -0.448460
 C         1.444931        -0.087496        -0.185800
 C        -0.038050         0.100168        -0.061534
 C         2.212029         1.041146        -0.948842
 C         3.283534         0.672638        -0.049968
 O         4.497996         1.251267         0.003603
 C         2.398117         0.162937         1.102918
 H         4.021741        -2.597147         1.012862
 H         4.800936        -2.079404        -0.421605
 H         5.092687        -1.222023         1.129827
 H        -0.408118        -0.773887         0.463173
 H        -0.236754         0.964345         0.497385
 H        -0.590456         0.429822        -0.977031
 H         2.489183         0.890278        -1.979522
 H         1.836708         2.051499        -0.781660
 H         4.593446         1.987721         0.614269
 H         2.210659         0.620994         2.034249
