19
Iteration:  4646charge 0 multiplicity 1
 C         4.135867        -1.814854         0.761264
 C         3.191557        -0.786751         0.357107
 O         2.051972        -1.231539        -0.515283
 C         1.386853         0.020486        -0.088255
 C        -0.035483        -0.155316        -0.082465
 C         2.192670         1.026830        -0.908026
 C         3.405386         0.611745        -0.125788
 O         4.601785         1.388532        -0.139893
 C         2.438043         0.254011         1.176155
 H         3.400761        -2.652193         0.992411
 H         4.770232        -2.162670        -0.032567
 H         4.809603        -1.548763         1.658006
 H        -0.393514        -0.944043         0.660526
 H        -0.364265         0.834067         0.263062
 H        -0.236560        -0.472778        -1.060701
 H         2.051744         0.927796        -1.975412
 H         1.982708         2.034158        -0.510870
 H         5.240442         0.658073        -0.333673
 H         2.429645         0.519119         2.193516
