19
Iteration:  2382
 C         4.125853        -1.886037         0.729162
 C         3.156596        -0.835656         0.268666
 O         2.099197        -1.371980        -0.453090
 C         1.392088         0.072040        -0.056573
 C        -0.072211        -0.032983        -0.043297
 C         2.194011         1.034726        -0.934834
 C         3.424165         0.727609        -0.089680
 O         4.639592         1.305405        -0.040572
 C         2.482518         0.246406         1.048855
 H         3.797034        -2.492490         1.623942
 H         4.207206        -2.594237        -0.132630
 H         5.142385        -1.456984         0.874483
 H        -0.437972        -0.788301         0.744840
 H        -0.532823         1.009001         0.205488
 H        -0.433479        -0.359276        -0.989151
 H         2.348254         0.847455        -2.015590
 H         1.740670         1.996331        -0.768571
 H         4.573868         2.281723        -0.279112
 H         2.077374         0.273109         2.025080
