19
Iteration:  2309charge 0 multiplicity 1
 C         4.323556        -1.662486         0.634024
 C         3.208147        -0.852565         0.180472
 O         1.962726        -1.312009        -0.261634
 C         1.348569         0.003606        -0.148191
 C        -0.078428         0.055925        -0.072212
 C         2.151398         1.004854        -1.011305
 C         3.344430         0.615620        -0.096439
 O         4.681055         1.124298         0.108788
 C         2.494664         0.190531         0.992175
 H         3.834907        -2.457714         1.111817
 H         4.946779        -1.943500        -0.197309
 H         4.921287        -1.052237         1.375925
 H        -0.400478        -0.743121         0.539917
 H        -0.503776         1.008008         0.247864
 H        -0.614105        -0.258425        -1.089077
 H         2.226913         0.891443        -2.172629
 H         1.605272         1.945336        -0.771412
 H         4.541609         2.101264         0.249500
 H         2.367905         0.798017         1.872336
