19
Iteration:  2652
 C         4.276847        -1.678867         0.527674
 C         3.139034        -0.889511         0.337593
 O         1.977613        -1.379097        -0.333705
 C         1.403672        -0.041910        -0.158383
 C        -0.057750         0.094346        -0.042574
 C         2.298095         0.946170        -1.024099
 C         3.354286         0.703916        -0.030867
 O         4.641790         1.245984        -0.007161
 C         2.376869         0.187960         1.140482
 H         4.078781        -2.727915         0.883511
 H         4.867164        -1.721931        -0.414592
 H         4.957907        -1.365405         1.332906
 H        -0.758294        -0.449905         0.720530
 H        -0.248465         1.209739        -0.039768
 H        -0.575552        -0.155089        -0.951034
 H         2.541410         0.497622        -2.034118
 H         1.905994         2.022137        -1.104619
 H         4.489229         2.137036         0.266402
 H         2.070376         0.373936         2.259368
