19
Iteration:  3234charge 0 multiplicity 1
 C         4.205331        -1.819727         0.732171
 C         3.198282        -0.781799         0.319026
 O         2.045077        -1.290550        -0.366864
 C         1.389866        -0.009188        -0.056600
 C        -0.138377        -0.066838        -0.115544
 C         2.201998         1.018533        -1.014699
 C         3.409997         0.668560        -0.125001
 O         4.644324         1.226710         0.035976
 C         2.462326         0.237711         1.004376
 H         3.734020        -2.537503         1.395217
 H         4.442387        -2.178240        -0.285130
 H         5.125120        -1.447167         1.220989
 H        -0.354295        -0.659922         0.755309
 H        -0.626870         0.973996        -0.029739
 H        -0.289944        -0.440841        -1.084656
 H         2.112513         0.868793        -2.124775
 H         1.878524         2.099002        -0.706151
 H         4.565527         2.159668        -0.318800
 H         2.364869         0.774770         2.010584
