19
Iteration:    55charge 0 multiplicity 1
 C         4.375833        -1.763007         0.526643
 C         3.125558        -0.909597         0.324125
 O         1.958439        -1.305584        -0.396126
 C         1.390073         0.069875        -0.144786
 C        -0.101917        -0.042678        -0.187471
 C         2.234591         1.085487        -0.908497
 C         3.385336         0.504108        -0.021422
 O         4.539250         1.272319         0.116817
 C         2.466448         0.275420         1.156975
 H         4.357932        -2.578427         1.202066
 H         4.628234        -2.104185        -0.462923
 H         5.042414        -1.037521         0.920323
 H        -0.356148        -0.877120         0.465889
 H        -0.572431         0.875466         0.125497
 H        -0.450403        -0.299391        -1.136344
 H         2.204501         1.271119        -1.975678
 H         2.017696         2.046708        -0.445696
 H         4.954012         1.293164        -0.736845
 H         2.423461         0.866791         2.035913
