19
Iteration:  4950charge 0 multiplicity 1
 C         4.218306        -1.886587         0.589658
 C         3.207625        -0.779612         0.296916
 O         1.955483        -1.277109        -0.339830
 C         1.349667         0.103119        -0.095730
 C        -0.119114        -0.127291        -0.149981
 C         2.188581         1.027214        -0.964981
 C         3.402922         0.742560        -0.050885
 O         4.681047         1.335796         0.092169
 C         2.487699         0.230378         1.080980
 H         3.949136        -2.483428         1.474752
 H         4.140920        -2.529691        -0.363285
 H         5.274374        -1.440179         0.779807
 H        -0.223674        -1.134196         0.363984
 H        -0.727906         0.723393         0.208874
 H        -0.201823        -0.339512        -1.168603
 H         2.248588         0.745427        -2.055131
 H         1.748010         2.074018        -0.842200
 H         5.146651         0.886911        -0.601032
 H         2.362177         0.419792         2.164435
