19
Iteration:  4360charge 0 multiplicity 1
 C         4.233623        -1.761989         0.671529
 C         3.166453        -0.808871         0.374731
 O         2.011312        -1.349466        -0.458530
 C         1.406080        -0.064094        -0.037239
 C        -0.021896        -0.047909        -0.085979
 C         2.273368         1.037296        -1.013830
 C         3.363242         0.743517        -0.015072
 O         4.615589         1.294503        -0.063173
 C         2.349430         0.163481         1.117694
 H         4.085633        -2.244268         1.579776
 H         4.268420        -2.434344        -0.146258
 H         5.240212        -1.402853         0.727348
 H        -0.539028        -0.643960         0.579003
 H        -0.399752         0.934201         0.130261
 H        -0.265046        -0.329922        -1.141017
 H         2.438523         0.617031        -2.046620
 H         1.779373         2.010308        -1.064434
 H         4.569602         2.297301        -0.056487
 H         2.278892         0.499200         2.105398
