19
Iteration:  2325
 C         4.331577        -1.726859         0.643360
 C         3.196254        -0.791778         0.237262
 O         1.900827        -1.387906        -0.376675
 C         1.392396        -0.023353        -0.047116
 C        -0.145423         0.014675        -0.043661
 C         2.179322         1.020537        -1.102664
 C         3.374920         0.731228        -0.174470
 O         4.641572         1.134301         0.141215
 C         2.503557         0.310131         1.014792
 H         4.048178        -2.534563         1.402843
 H         4.989086        -2.162228        -0.149098
 H         5.065669        -1.199686         1.226910
 H        -0.617545        -0.822029         0.693717
 H        -0.360771         1.070908         0.217033
 H        -0.454762        -0.228264        -1.049505
 H         2.155706         0.694099        -2.118168
 H         1.827772         2.044485        -0.931121
 H         4.748296         2.012236         0.487779
 H         2.654129         0.325975         2.114271
