19
Iteration:  2295
 C         4.325560        -1.705182         0.635254
 C         3.134975        -0.829426         0.353514
 O         2.013245        -1.370424        -0.403685
 C         1.424790         0.038284        -0.108759
 C        -0.117030         0.011155        -0.080277
 C         2.194088         1.010387        -0.999447
 C         3.390994         0.606104        -0.116361
 O         4.639819         1.146878         0.006987
 C         2.369905         0.284728         1.093679
 H         4.086707        -2.740954         1.042556
 H         4.980775        -1.903639        -0.255068
 H         4.896670        -1.157137         1.384300
 H        -0.491717        -0.634927         0.665834
 H        -0.477514         1.022151         0.288862
 H        -0.482767        -0.056290        -1.065697
 H         2.080574         0.859526        -2.129528
 H         2.074737         2.077702        -0.756120
 H         4.540710         2.107766         0.174512
 H         2.393628         0.562006         2.124177
