19
Iteration:  2880
 C         4.250493        -1.747612         0.723382
 C         3.161928        -0.861075         0.284240
 O         2.094753        -1.231841        -0.499235
 C         1.369809         0.027033        -0.132588
 C        -0.175614        -0.040156        -0.028855
 C         2.181355         1.022083        -0.966349
 C         3.374705         0.580031        -0.125217
 O         4.632926         1.192875         0.048684
 C         2.530234         0.239879         1.077466
 H         3.725636        -2.633291         1.104437
 H         4.925856        -2.035347        -0.109921
 H         4.921696        -1.269260         1.541080
 H        -0.338490        -0.721639         0.893236
 H        -0.779396         0.927852         0.091233
 H        -0.543689        -0.435475        -0.963319
 H         2.144723         0.860264        -2.101378
 H         1.941835         2.046756        -0.608372
 H         4.416803         2.112268        -0.228505
 H         2.364358         0.688146         2.061052
