19
Iteration:   171charge 0 multiplicity 1
 C         4.207174        -1.773268         0.658237
 C         3.226372        -0.809885         0.217127
 O         2.094682        -1.245943        -0.471121
 C         1.388799         0.053561        -0.095103
 C        -0.102147        -0.089173        -0.081323
 C         2.100441         1.058829        -0.946217
 C         3.360722         0.701000        -0.069945
 O         4.668722         1.259596         0.143782
 C         2.435369         0.168515         1.057760
 H         3.499691        -2.428856         1.240342
 H         4.677589        -2.510276        -0.144144
 H         4.916508        -1.404095         1.402068
 H        -0.369755        -0.962856         0.611344
 H        -0.597128         0.899219         0.378193
 H        -0.593233        -0.162610        -1.068893
 H         2.203071         0.689862        -2.025761
 H         1.760084         2.095592        -0.958707
 H         5.065613         1.313832        -0.726459
 H         2.557566         0.109985         2.106596
