19
Iteration:  4354charge 0 multiplicity 1
 C         4.245667        -1.783496         0.695718
 C         3.163857        -0.842680         0.310072
 O         2.055974        -1.291358        -0.418775
 C         1.437055        -0.072981        -0.077788
 C        -0.043273        -0.065140        -0.077873
 C         2.279533         1.049941        -1.005564
 C         3.330344         0.807065        -0.014484
 O         4.606552         1.265437        -0.070876
 C         2.329677         0.154387         1.113968
 H         4.090498        -2.388511         1.680053
 H         4.204528        -2.543726        -0.146165
 H         5.293573        -1.326481         0.851483
 H        -0.645046        -0.651461         0.737703
 H        -0.429453         1.002909        -0.001241
 H        -0.382142        -0.331827        -1.065003
 H         2.432945         0.693563        -2.016471
 H         1.798458         2.045508        -1.096507
 H         4.601696         2.222874        -0.227382
 H         2.253279         0.289662         2.249473
