19
Iteration:  1487
 C         4.264252        -1.745166         0.748703
 C         3.210065        -0.867102         0.248511
 O         2.011167        -1.301913        -0.485380
 C         1.402859         0.046356        -0.089181
 C        -0.087848         0.005141        -0.044135
 C         2.143514         1.076208        -0.970800
 C         3.343047         0.643408        -0.124457
 O         4.641251         1.179290         0.021779
 C         2.460440         0.219598         1.043848
 H         4.043702        -2.718100         1.260519
 H         4.913759        -1.977948        -0.035205
 H         4.748430        -1.190426         1.572581
 H        -0.323274        -1.027582         0.251311
 H        -0.468663         0.805222         0.519549
 H        -0.516239        -0.053682        -1.017013
 H         2.136440         0.717403        -2.033257
 H         1.835920         2.095596        -0.853867
 H         4.543296         2.102924         0.363621
 H         2.543208         0.228949         2.091883
