19
Iteration:  4225charge 0 multiplicity 1
 C         4.378721        -1.806062         0.692667
 C         3.163494        -0.861797         0.217623
 O         1.953438        -1.367509        -0.290829
 C         1.355424        -0.025426        -0.100398
 C        -0.179768         0.045314        -0.114747
 C         2.229146         0.906052        -1.137087
 C         3.406542         0.694467        -0.053540
 O         4.627429         1.344098         0.032328
 C         2.460450         0.259961         1.057128
 H         3.903385        -2.680989         1.211897
 H         5.113678        -2.063281        -0.115490
 H         4.925229        -1.052110         1.238222
 H        -0.603580        -0.896967         0.423411
 H        -0.411472         0.909192         0.591316
 H        -0.524484         0.232469        -1.126102
 H         2.538724         0.735502        -2.188086
 H         1.943519         1.992089        -1.025332
 H         4.412801         2.026550         0.679433
 H         2.368924         0.182351         2.164286
