19
Iteration:  3680charge 0 multiplicity 1
 C         4.292870        -1.786829         0.748866
 C         3.198133        -0.837649         0.310559
 O         1.956144        -1.264618        -0.380603
 C         1.388530        -0.021480        -0.086695
 C        -0.158275        -0.119159        -0.102184
 C         2.336276         1.099218        -1.047370
 C         3.411934         0.605304        -0.098669
 O         4.579044         1.220679        -0.057757
 C         2.459437         0.297270         1.074666
 H         3.782808        -2.553304         1.284895
 H         5.021981        -2.190303         0.063964
 H         4.920806        -1.152887         1.471995
 H        -0.410960        -1.097137         0.362578
 H        -0.610445         0.706175         0.602097
 H        -0.492199         0.075576        -1.098670
 H         2.127224         0.708728        -2.061683
 H         1.963092         2.129493        -0.869911
 H         4.317728         2.158585        -0.068105
 H         2.402643         0.637753         2.190958
