19
Iteration:  4858
 C         4.293791        -1.832790         0.713568
 C         3.208727        -0.917759         0.284648
 O         2.039600        -1.337465        -0.522375
 C         1.423007         0.064936        -0.121772
 C        -0.078182         0.061358         0.074947
 C         2.149563         1.034717        -1.040237
 C         3.386664         0.626091        -0.137338
 O         4.506435         1.395913         0.051007
 C         2.423674         0.156885         1.046441
 H         4.041518        -2.836604         1.162995
 H         5.257024        -1.952475         0.078195
 H         4.599984        -1.270797         1.594997
 H        -0.514274        -0.425068         0.874075
 H        -0.330289         1.110832         0.138969
 H        -0.634391        -0.368902        -0.856556
 H         2.242175         0.963602        -2.135626
 H         1.983061         2.061781        -0.751973
 H         5.340402         0.845015        -0.057192
 H         2.315004         0.185300         2.102933
