19
Iteration:  3771
 C         4.211644        -1.729295         0.700797
 C         3.235960        -0.822556         0.227888
 O         1.976299        -1.302219        -0.331304
 C         1.428053        -0.008854        -0.086032
 C        -0.118368        -0.024699        -0.057914
 C         2.264977         0.939395        -1.056784
 C         3.399722         0.603279        -0.169059
 O         4.595177         1.342312         0.032493
 C         2.463799         0.230253         1.046407
 H         3.828698        -2.394030         1.532767
 H         4.513211        -2.361267        -0.170449
 H         5.075768        -1.174768         0.972235
 H        -0.643075        -0.428063         0.848254
 H        -0.611990         0.897096        -0.157972
 H        -0.403748        -0.592069        -0.914431
 H         2.278824         0.464768        -2.075142
 H         1.943884         1.975575        -0.920863
 H         4.464813         1.918741         0.773376
 H         2.514068         0.368548         2.085383
