19
Iteration:   863
 C         4.257943        -1.808748         0.676736
 C         3.146681        -0.892761         0.213816
 O         1.959180        -1.245337        -0.476679
 C         1.449102         0.009380        -0.056978
 C        -0.101295        -0.008206        -0.073917
 C         2.192719         0.998164        -0.919593
 C         3.426218         0.620753        -0.159979
 O         4.588755         1.360489         0.070651
 C         2.535607         0.113717         1.073149
 H         3.855445        -2.725243         1.137336
 H         5.089322        -2.097811         0.016831
 H         4.783602        -1.192029         1.396197
 H        -0.406078        -1.039014         0.290606
 H        -0.544979         0.838638         0.508079
 H        -0.489866        -0.027759        -1.105495
 H         2.156289         0.862229        -2.007598
 H         1.814820         2.059036        -0.782355
 H         4.325721         2.265995         0.283249
 H         2.497392         0.388717         2.175454
