19
Iteration:  4991
 C         4.259913        -1.852801         0.784169
 C         3.238360        -0.873361         0.289841
 O         2.057186        -1.302400        -0.555559
 C         1.464025        -0.001643        -0.135423
 C        -0.070079         0.069845        -0.022021
 C         2.200121         1.072125        -0.919616
 C         3.401045         0.668038        -0.066172
 O         4.535234         1.409778        -0.022228
 C         2.310389         0.084698         1.037169
 H         3.996754        -2.016863         1.785278
 H         3.990338        -2.724930         0.116469
 H         5.372515        -1.605741         0.667420
 H        -0.272724        -0.827751         0.550493
 H        -0.538545         0.892911         0.553949
 H        -0.606845         0.000171        -1.042707
 H         2.203380         1.064560        -2.013392
 H         1.946333         2.037289        -0.439539
 H         5.355221         0.862455        -0.239263
 H         2.158860         0.170098         2.141463
