19
Iteration:  2440
 C         4.237255        -1.729750         0.680371
 C         3.146785        -0.798447         0.345765
 O         1.993610        -1.309570        -0.414323
 C         1.413456         0.009912        -0.152498
 C        -0.080428        -0.036800        -0.041127
 C         2.231166         1.013878        -0.970167
 C         3.399732         0.622680        -0.049016
 O         4.715197         1.224517        -0.103804
 C         2.342103         0.184679         1.112842
 H         3.825809        -2.605232         1.144097
 H         4.619706        -1.921055        -0.335266
 H         5.081630        -1.304680         1.342819
 H        -0.438621        -0.716347         0.623897
 H        -0.339595         0.950084         0.341561
 H        -0.616891        -0.121839        -1.068090
 H         2.485416         0.860952        -2.087869
 H         1.788543         2.009467        -0.771329
 H         4.609323         2.114829         0.239606
 H         2.097439         0.457908         2.201561
