19
Iteration:   303charge 0 multiplicity 1
 C         4.232111        -1.908100         0.741639
 C         3.157561        -0.889316         0.211054
 O         1.931465        -1.262926        -0.558333
 C         1.468296         0.078901        -0.157407
 C        -0.039997        -0.115346         0.053773
 C         2.238641         1.074414        -0.968888
 C         3.414891         0.676850        -0.026043
 O         4.604450         1.368452         0.000306
 C         2.437255         0.189529         1.043685
 H         3.533331        -2.554056         1.260552
 H         4.839049        -2.273464        -0.147270
 H         4.907962        -1.535958         1.485761
 H        -0.296175        -1.023019         0.684580
 H        -0.683882         0.816149         0.436070
 H        -0.456498        -0.389568        -0.935890
 H         2.452030         1.012486        -2.117337
 H         1.936813         2.110112        -0.696826
 H         4.511968         2.133689         0.561361
 H         2.506624         0.299821         2.071230
