19
Iteration:   638
 C         4.181920        -1.819237         0.671685
 C         3.175943        -0.747677         0.253519
 O         2.178973        -1.216347        -0.565380
 C         1.406216        -0.019688        -0.125082
 C        -0.186915        -0.143329         0.029326
 C         2.258765         1.117554        -0.919657
 C         3.369476         0.696901         0.020622
 O         4.654528         1.220174        -0.088253
 C         2.350483         0.131107         1.085167
 H         3.737810        -2.549656         1.424119
 H         4.519209        -2.388722        -0.144122
 H         4.928138        -1.274352         1.188665
 H        -0.510349        -0.716317         0.952420
 H        -0.684692         0.916122         0.146282
 H        -0.702948        -0.450980        -0.887571
 H         2.471213         0.846745        -1.989933
 H         2.058049         2.160331        -0.629699
 H         4.684607         1.993253         0.501522
 H         2.231347         0.378836         2.154821
