19
Iteration:  3633
 C         4.230725        -1.829184         0.801951
 C         3.230580        -0.781739         0.259698
 O         2.073639        -1.297084        -0.482564
 C         1.375405        -0.068367        -0.088593
 C        -0.110108        -0.024266         0.015550
 C         2.199607         0.891608        -1.062596
 C         3.338798         0.728303        -0.079787
 O         4.626565         1.297126        -0.050718
 C         2.393365         0.299560         1.032086
 H         3.674182        -2.591994         1.391411
 H         4.728452        -2.362137        -0.032031
 H         5.061672        -1.372027         1.237845
 H        -0.544088        -0.693516         0.763537
 H        -0.323131         1.006275         0.400134
 H        -0.435846         0.043674        -1.143605
 H         2.597332         0.647223        -2.065937
 H         1.913232         1.946487        -0.946177
 H         4.577442         1.865869         0.775527
 H         2.377788         0.482102         2.061162
