19
Iteration:  1045
 C         4.351377        -1.862096         0.652082
 C         3.248414        -0.738051         0.226540
 O         1.989642        -1.275692        -0.472326
 C         1.391978         0.038374        -0.099449
 C        -0.122932        -0.035360         0.005488
 C         2.106353         1.029138        -1.046675
 C         3.377425         0.684971        -0.105182
 O         4.638965         1.204083         0.192740
 C         2.427070         0.226702         0.956224
 H         3.888082        -2.637257         1.211152
 H         4.869926        -2.366807        -0.256538
 H         5.062378        -1.454487         1.398799
 H        -0.504054        -0.801148         0.709267
 H        -0.550831         0.877585         0.147599
 H        -0.525792        -0.503990        -0.891415
 H         2.173281         0.796459        -2.117384
 H         1.891298         2.054305        -0.797228
 H         4.614199         2.177537         0.325055
 H         2.399441         0.444652         2.132640
