19
Iteration:  3485
 C         4.152276        -1.780545         0.796377
 C         3.245842        -0.838820         0.203575
 O         2.119853        -1.293813        -0.440511
 C         1.419474        -0.000936        -0.096918
 C        -0.113106         0.039121         0.006567
 C         2.178295         0.939821        -1.069332
 C         3.325400         0.726794        -0.128572
 O         4.626447         1.211720         0.025949
 C         2.466935         0.204212         1.041268
 H         3.732536        -2.567127         1.385307
 H         4.798189        -2.161350        -0.006527
 H         4.938750        -1.124718         1.345167
 H        -0.465117        -0.926843         0.412336
 H        -0.509307         0.911067         0.661573
 H        -0.503219         0.094015        -0.982251
 H         2.157677         0.451046        -2.029986
 H         1.988047         1.990192        -0.975214
 H         4.442657         2.145421         0.224177
 H         2.115573         0.585392         2.016408
