19
Iteration:  4811
 C         4.096786        -1.838793         0.653081
 C         3.239049        -0.771522         0.348010
 O         2.009950        -1.235760        -0.413002
 C         1.381788         0.047657        -0.012348
 C        -0.017157        -0.200021        -0.073817
 C         2.222470         1.059204        -0.989716
 C         3.350548         0.738324        -0.056059
 O         4.671317         1.331189        -0.007318
 C         2.476762         0.279710         1.026828
 H         3.594644        -2.606797         1.373606
 H         4.371457        -2.364839        -0.257975
 H         5.070056        -1.646438         1.113647
 H        -0.287120        -1.335245         0.135817
 H        -0.749446         0.327121         0.599442
 H        -0.409892        -0.107093        -1.059615
 H         2.239263         0.726164        -2.005411
 H         1.684442         1.990915        -0.824180
 H         5.138995         0.933072        -0.785594
 H         2.180448         0.365510         2.148486
