19
Iteration:  1636charge 0 multiplicity 1
 C         4.390227        -1.733965         0.639487
 C         3.147715        -0.836226         0.374615
 O         2.011642        -1.319774        -0.426542
 C         1.382347        -0.012259        -0.195308
 C        -0.164040         0.039085        -0.096381
 C         2.286271         1.017652        -0.979033
 C         3.319162         0.687917         0.039973
 O         4.623385         1.179717        -0.128148
 C         2.364838         0.183096         1.182038
 H         4.006251        -2.410045         1.349953
 H         4.905677        -2.125965        -0.293618
 H         5.303012        -1.325298         1.181320
 H        -0.574956        -0.622304         0.629790
 H        -0.585281         1.032928         0.174670
 H        -0.519163        -0.146776        -1.043222
 H         2.375216         0.733048        -1.989691
 H         1.973879         2.105729        -0.993385
 H         4.789502         1.932577         0.501136
 H         2.175391         0.480140         2.227045
