19
Iteration:  3446charge 0 multiplicity 1
 C         4.205767        -1.774673         0.779529
 C         3.045216        -0.933256         0.327718
 O         2.034636        -1.316579        -0.468411
 C         1.444227        -0.018750        -0.175639
 C        -0.040227         0.035017         0.059257
 C         2.275445         0.990608        -1.020974
 C         3.420372         0.623172        -0.068564
 O         4.631929         1.352567        -0.031432
 C         2.413401         0.191925         0.951360
 H         3.781876        -2.601056         1.400563
 H         4.766042        -2.269934        -0.049346
 H         4.872484        -1.194452         1.398043
 H        -0.175631        -0.761879         0.823167
 H        -0.492415         0.871694         0.470363
 H        -0.642220        -0.225799        -0.899390
 H         2.524529         0.847209        -2.107300
 H         1.769399         2.000218        -0.856158
 H         4.595067         2.330238         0.161544
 H         1.900780         0.619034         1.874910
