19
Iteration:  4338
 C         4.252900        -1.833788         0.738330
 C         3.268905        -0.748930         0.326955
 O         2.108608        -1.288794        -0.472944
 C         1.353422         0.013841        -0.211586
 C        -0.151646        -0.048574        -0.098054
 C         2.152628         1.025335        -0.958140
 C         3.357921         0.697799         0.022133
 O         4.616845         1.217494        -0.052918
 C         2.444287         0.217666         1.119205
 H         3.924173        -2.215836         1.641213
 H         4.581435        -2.506709        -0.013150
 H         5.196863        -1.402447         1.044985
 H        -0.293052        -0.441970         0.841385
 H        -0.626061         0.907239         0.036675
 H        -0.682285        -0.685052        -0.859226
 H         2.391081         0.890342        -2.056490
 H         1.755696         2.018517        -0.738603
 H         4.595699         2.082989        -0.424629
 H         2.143838         0.177130         2.130604
