19
Iteration:  2241
 C         4.174104        -1.802319         0.765499
 C         3.176210        -0.821741         0.315125
 O         2.005999        -1.301146        -0.438714
 C         1.454795        -0.010779        -0.111313
 C        -0.091804        -0.074309        -0.010205
 C         2.170711         1.057513        -0.948721
 C         3.426459         0.656947        -0.105323
 O         4.666085         1.260169        -0.056202
 C         2.502163         0.253109         0.992973
 H         3.501828        -2.541861         1.328504
 H         4.563483        -2.280499        -0.153390
 H         4.890228        -1.435750         1.492990
 H        -0.636489        -0.842388         0.489091
 H        -0.651559         0.922011         0.092721
 H        -0.276124        -0.288896        -1.123509
 H         2.072391         1.030220        -2.108354
 H         1.819436         2.047943        -0.570903
 H         4.475738         2.231888         0.070182
 H         2.476181         0.273880         2.080462
