19
Iteration:  4777charge 0 multiplicity 1
 C         4.294247        -1.828124         0.628567
 C         3.201562        -0.854213         0.445772
 O         2.032121        -1.275786        -0.370516
 C         1.388780         0.030252        -0.127730
 C        -0.214819        -0.056072        -0.164292
 C         2.192612         1.023250        -0.989662
 C         3.385923         0.643582        -0.099280
 O         4.553146         1.327782         0.066456
 C         2.556243         0.237165         1.040168
 H         4.201754        -2.277436         1.651127
 H         4.268367        -2.530671        -0.164543
 H         5.220282        -1.172015         0.659256
 H        -0.489239        -1.114045         0.291998
 H        -0.502375         0.724757         0.596812
 H        -0.656747         0.210253        -1.088030
 H         2.305347         1.002942        -2.056450
 H         1.848452         2.037057        -0.678180
 H         4.971768         1.068208        -0.818061
 H         2.542000         0.437427         2.134452
