19
Iteration:  2544
 C         4.206252        -1.905346         0.739755
 C         3.147530        -0.781161         0.378936
 O         2.158446        -1.240905        -0.609000
 C         1.438988         0.021554        -0.062796
 C        -0.089035        -0.053700        -0.063344
 C         2.217825         1.003343        -0.957341
 C         3.358942         0.641870         0.042199
 O         4.595740         1.257818        -0.160734
 C         2.379079         0.301063         1.140412
 H         3.727727        -2.610514         1.458846
 H         4.330819        -2.512870        -0.184190
 H         5.200932        -1.575451         1.052508
 H        -0.244471        -0.685365         0.913382
 H        -0.352739         1.007076         0.279824
 H        -0.618011        -0.353747        -0.908282
 H         2.148466         0.527466        -1.974239
 H         1.871769         2.132580        -0.821189
 H         4.573002         2.172774         0.117867
 H         2.118251         0.462669         2.214967
