19
Iteration:  3994
 C         4.188202        -1.734257         0.779238
 C         3.161361        -0.785624         0.328224
 O         2.059706        -1.209940        -0.533206
 C         1.291820         0.038970        -0.086934
 C        -0.142644        -0.169691        -0.104835
 C         2.242853         0.946547        -0.916754
 C         3.435396         0.657655         0.000295
 O         4.645818         1.238040        -0.162151
 C         2.472957         0.245965         1.147359
 H         3.888470        -2.343865         1.630402
 H         4.609118        -2.495141         0.059951
 H         5.174919        -1.160838         1.056154
 H        -0.386444        -0.951077         0.608899
 H        -0.647044         0.853987         0.022155
 H        -0.583887        -0.490240        -1.055555
 H         2.431948         0.784034        -2.028559
 H         2.068668         2.100454        -0.938810
 H         4.712683         2.070108         0.311877
 H         2.374558         0.353976         2.151126
