19
Iteration:   381charge 0 multiplicity 1
 C         4.339048        -1.675509         0.545279
 C         3.122430        -0.856291         0.332907
 O         1.965158        -1.313959        -0.484229
 C         1.410089         0.013399        -0.063038
 C        -0.075469         0.020593        -0.121374
 C         2.269225         0.959434        -0.892420
 C         3.375773         0.577435        -0.032976
 O         4.572273         1.246232         0.031528
 C         2.386931         0.218762         1.125643
 H         4.229405        -2.541582         1.043689
 H         4.455728        -2.121042        -0.479824
 H         5.226335        -1.108475         0.829499
 H        -0.330986        -0.831086         0.518027
 H        -0.543295         0.973655         0.163025
 H        -0.484518        -0.174855        -1.152238
 H         2.448221         0.600396        -1.910945
 H         2.316799         2.070204        -0.760687
 H         4.474855         2.083875         0.523303
 H         2.396591         0.597215         2.201709
