19
Iteration:   328
 C         4.151348        -1.791019         0.664111
 C         3.222907        -0.780027         0.188653
 O         2.144872        -1.220955        -0.569087
 C         1.427144        -0.013349        -0.044459
 C        -0.132136        -0.046189         0.011165
 C         2.100457         1.006574        -0.941602
 C         3.403919         0.657564        -0.142902
 O         4.646554         1.206196         0.091273
 C         2.466325         0.170181         1.091709
 H         3.492781        -2.355069         1.266759
 H         4.765480        -2.378839        -0.006933
 H         4.806185        -1.245234         1.366114
 H        -0.496228        -0.888736         0.587125
 H        -0.584756         0.883696         0.343337
 H        -0.543681        -0.242938        -1.077691
 H         2.090649         0.904633        -1.991767
 H         1.794961         2.026568        -0.591417
 H         4.615837         2.177335         0.071517
 H         2.457132         0.470614         2.209655
