19
Iteration:  3418charge 0 multiplicity 1
 C         4.266538        -1.797774         0.752112
 C         3.214522        -0.838035         0.259668
 O         1.999536        -1.252172        -0.406367
 C         1.371061        -0.037618        -0.096422
 C        -0.109775        -0.003299        -0.143474
 C         2.153742         0.996780        -1.020883
 C         3.405343         0.647853        -0.075382
 O         4.613708         1.224136         0.011512
 C         2.500871         0.298009         1.058552
 H         3.682151        -2.566722         1.314773
 H         4.684339        -2.302928        -0.144163
 H         5.200235        -1.481648         1.231923
 H        -0.345562        -0.505145         0.810331
 H        -0.719381         0.984621        -0.016201
 H        -0.490570        -0.635586        -0.886341
 H         2.325000         0.582305        -2.008610
 H         1.950484         2.041341        -0.879447
 H         4.598784         2.077317         0.496602
 H         2.406806         0.628272         2.043260
