19
Iteration:  1827charge 0 multiplicity 1
 C         4.242588        -1.822421         0.568881
 C         3.159010        -0.811558         0.428249
 O         2.055266        -1.259158        -0.435075
 C         1.413181        -0.031425        -0.068019
 C        -0.107410        -0.024770        -0.043447
 C         2.284558         0.940118        -1.019073
 C         3.371366         0.632599        -0.059273
 O         4.605147         1.271819        -0.008810
 C         2.347328         0.285032         1.076437
 H         3.763531        -2.569829         1.266630
 H         4.570275        -2.199088        -0.412529
 H         5.081171        -1.302347         0.958618
 H        -0.422093        -0.721553         0.693341
 H        -0.383005         0.965412         0.282178
 H        -0.384884        -0.099962        -1.088687
 H         2.510723         0.556553        -2.074445
 H         2.035672         1.980599        -1.090621
 H         4.512422         2.133350         0.402203
 H         2.352237         0.604522         2.021222
