19
Iteration:  1220charge 0 multiplicity 1
 C         4.264249        -1.821328         0.639124
 C         3.241417        -0.821101         0.113912
 O         2.030847        -1.295675        -0.417792
 C         1.383200        -0.034119        -0.055410
 C        -0.162491        -0.013515        -0.073838
 C         2.142274         1.006462        -0.977099
 C         3.380717         0.705423        -0.127523
 O         4.649318         1.218589         0.154452
 C         2.494384         0.261983         1.036729
 H         3.756518        -2.507379         1.310703
 H         4.824276        -2.411992        -0.167197
 H         5.095024        -1.318679         1.062170
 H        -0.667631        -0.225484         0.892835
 H        -0.594478         0.968180        -0.286573
 H        -0.523598        -0.611881        -0.910235
 H         2.259558         0.901859        -2.052556
 H         1.685091         1.984163        -0.730949
 H         4.541392         1.939901         0.830943
 H         2.551583         0.668542         2.049745
