19
Iteration:   252
 C         4.248637        -1.871200         0.545367
 C         3.252841        -0.808352         0.194406
 O         2.045907        -1.276073        -0.437511
 C         1.469626        -0.010155        -0.037881
 C        -0.062694         0.043272        -0.109789
 C         2.168353         0.923727        -0.966238
 C         3.327701         0.722268        -0.032057
 O         4.527273         1.325118         0.079254
 C         2.450747         0.223068         1.117525
 H         3.822276        -2.643058         1.153080
 H         4.686922        -2.231329        -0.407966
 H         5.007084        -1.285443         1.113939
 H        -0.512147        -0.536993         0.667914
 H        -0.429824         1.009526         0.123876
 H        -0.498941        -0.274475        -1.092994
 H         2.277426         0.493754        -1.909992
 H         1.845022         1.970308        -1.033380
 H         4.892657         0.947925         0.891610
 H         2.207305         0.663904         2.147238
