19
Iteration:  4195charge 0 multiplicity 1
 C         4.258720        -1.741445         0.741145
 C         3.184047        -0.800891         0.283210
 O         2.086982        -1.302742        -0.465209
 C         1.467455        -0.010229        -0.035382
 C        -0.090467        -0.043868        -0.070852
 C         2.150634         1.012394        -1.057257
 C         3.323005         0.619636        -0.130753
 O         4.587744         1.201760         0.032032
 C         2.435346         0.221763         1.091859
 H         3.888167        -2.277651         1.665186
 H         4.575839        -2.358058        -0.144160
 H         5.109270        -1.212459         1.103970
 H        -0.705737        -0.812373         0.477288
 H        -0.455911         0.834764         0.405462
 H        -0.303453        -0.111767        -1.150454
 H         2.284736         0.915795        -2.179668
 H         1.913357         2.065409        -0.804354
 H         4.526538         2.166798         0.068006
 H         2.360101         0.871221         2.082947
