19
Iteration:   399charge 0 multiplicity 1
 C         4.409172        -1.825751         0.486577
 C         3.159827        -0.809078         0.309292
 O         2.018197        -1.268708        -0.376527
 C         1.374013        -0.005866        -0.064262
 C        -0.167584         0.028453        -0.125952
 C         2.134781         0.961331        -1.064927
 C         3.349263         0.687712         0.023576
 O         4.663825         1.232575         0.131109
 C         2.465138         0.215214         1.095802
 H         4.080911        -2.673155         1.283766
 H         4.727405        -2.233498        -0.535253
 H         5.162732        -1.110355         0.817454
 H        -0.704119        -0.764055         0.450912
 H        -0.453722         1.128507        -0.036064
 H        -0.424542        -0.150236        -1.129169
 H         2.211121         0.543121        -2.128632
 H         1.600466         1.897697        -0.977799
 H         4.543216         2.054768         0.635698
 H         2.382882         0.423197         2.091692
