19
Iteration:  4506
 C         4.247072        -1.909251         0.705521
 C         3.255059        -0.883969         0.190976
 O         2.033191        -1.204384        -0.377717
 C         1.436763         0.030750        -0.059528
 C        -0.129014        -0.153904        -0.144265
 C         2.180400         1.079838        -0.994879
 C         3.389312         0.635211        -0.040939
 O         4.585402         1.334316         0.030300
 C         2.464295         0.338418         1.087687
 H         3.654760        -2.610992         1.328510
 H         4.815723        -2.459569         0.070310
 H         4.915207        -1.289723         1.297079
 H        -0.610021        -0.517878         0.819559
 H        -0.618861         0.810202        -0.148188
 H        -0.572721        -0.742431        -0.863115
 H         2.084540         0.843121        -2.062658
 H         1.807247         2.074415        -0.671529
 H         4.977792         1.351213        -0.835668
 H         2.258173         0.391044         2.150870
