19
Iteration:   603charge 0 multiplicity 1
 C         4.352510        -1.714464         0.551793
 C         3.197947        -0.911221         0.276440
 O         1.946310        -1.265436        -0.406084
 C         1.401189         0.002337        -0.068940
 C        -0.083858         0.043261        -0.104541
 C         2.173405         1.022776        -0.983168
 C         3.376538         0.632607        -0.134300
 O         4.664123         1.272753         0.155230
 C         2.386796         0.066424         1.077626
 H         4.169069        -2.427684         1.420452
 H         4.745754        -2.262817        -0.306217
 H         5.194325        -1.085277         0.768838
 H        -0.572964        -0.422668         0.816066
 H        -0.421714         1.087230        -0.352694
 H        -0.343613        -0.704669        -0.870383
 H         1.935966         0.869548        -2.055999
 H         1.854744         2.098768        -0.844671
 H         4.420161         2.154634         0.476660
 H         2.328653         0.433507         2.045394
