19
Iteration:  4065
 C         4.337893        -1.741488         0.661651
 C         3.136778        -0.878443         0.363524
 O         2.017473        -1.252223        -0.394144
 C         1.431476         0.021537        -0.112279
 C        -0.086870         0.021546        -0.017671
 C         2.277197         0.859395        -1.131918
 C         3.335551         0.731645        -0.023708
 O         4.579459         1.274792        -0.000259
 C         2.403489         0.159390         1.091111
 H         4.199112        -2.810599         1.026373
 H         5.126130        -2.021773        -0.107524
 H         4.986491        -1.275533         1.356531
 H        -0.662874        -0.825341         0.450873
 H        -0.427845         0.952898         0.375330
 H        -0.629828         0.212638        -0.996924
 H         2.297640         0.247399        -2.050719
 H         1.983957         1.845079        -1.430022
 H         4.464773         2.225965         0.041180
 H         1.817890         0.568067         2.139506
