19
Iteration:  2026charge 0 multiplicity 1
 C         4.264507        -1.795418         0.755034
 C         3.215780        -0.823102         0.287423
 O         1.971982        -1.283878        -0.486259
 C         1.419055         0.031685        -0.115474
 C        -0.030292         0.017480         0.015437
 C         2.159099         1.011587        -1.045787
 C         3.383081         0.605273        -0.159103
 O         4.642969         1.276052         0.033750
 C         2.398206         0.167031         1.041722
 H         3.801504        -2.565206         1.434860
 H         4.635062        -2.296798        -0.174005
 H         5.129166        -1.261751         1.304867
 H        -0.304193        -0.673337         0.723984
 H        -0.346209         1.059439         0.278955
 H        -0.455603        -0.329889        -0.993889
 H         2.221818         0.700344        -2.067474
 H         1.691321         1.979226        -0.808625
 H         4.419828         2.175280         0.429813
 H         2.387484         0.325950         2.211588
