19
Iteration:  1056
 C         4.261944        -1.754837         0.618694
 C         3.219975        -0.816322         0.233266
 O         2.109662        -1.308038        -0.454293
 C         1.340478         0.008358        -0.098454
 C        -0.162838        -0.009674        -0.009248
 C         2.177354         1.033180        -1.054083
 C         3.362673         0.689230        -0.131348
 O         4.703633         1.196194         0.139494
 C         2.367057         0.205247         1.092917
 H         3.707561        -2.558572         1.037699
 H         4.891334        -2.102714        -0.296126
 H         5.021748        -1.274179         1.253813
 H        -0.403108        -0.790204         0.738921
 H        -0.591652         0.844966         0.347025
 H        -0.495014        -0.151309        -1.044763
 H         2.158414         0.749853        -2.118622
 H         1.738797         2.016110        -1.019222
 H         4.518656         2.080088         0.469029
 H         2.378187         0.274406         2.305804
