19
Iteration:  4309charge 0 multiplicity 1
 C         4.175772        -1.757028         0.735948
 C         3.154176        -0.887167         0.269708
 O         2.010647        -1.239280        -0.442501
 C         1.372172         0.020664        -0.051315
 C        -0.035028        -0.161588        -0.044812
 C         2.183199         1.074691        -0.984520
 C         3.426738         0.621535        -0.164084
 O         4.647920         1.241719        -0.007908
 C         2.472985         0.218436         1.011902
 H         4.037277        -2.480597         1.564351
 H         4.940892        -2.095827         0.065440
 H         4.710932        -0.975816         1.439519
 H        -0.586811        -0.418976         0.887932
 H        -0.503337         0.856449        -0.260744
 H        -0.291900        -0.786758        -0.872702
 H         2.261195         1.084427        -2.065884
 H         1.892685         2.090210        -0.676308
 H         4.485611         2.172131         0.284232
 H         2.249367         0.517858         2.017501
