19
Iteration:  1680charge 0 multiplicity 1
 C         4.172552        -1.896121         0.750904
 C         3.295630        -0.849035         0.233992
 O         2.022354        -1.305412        -0.415943
 C         1.421747         0.050742        -0.098774
 C        -0.142007        -0.048015        -0.022206
 C         2.170334         1.010599        -1.050513
 C         3.418395         0.637375        -0.145739
 O         4.561577         1.309379         0.071712
 C         2.501036         0.267336         0.996221
 H         3.601278        -2.670624         1.180092
 H         4.907709        -2.172169        -0.052984
 H         4.703992        -1.638390         1.722196
 H        -0.341434        -0.938337         0.548290
 H        -0.438895         0.792875         0.634381
 H        -0.540301         0.002945        -0.958131
 H         2.340349         0.950780        -2.071213
 H         1.998617         2.111834        -0.950808
 H         4.312938         2.258785        -0.077647
 H         2.791678         0.724733         2.021912
