19
Iteration:   660
 C         4.217138        -1.916034         0.767823
 C         3.127367        -0.778865         0.331230
 O         2.057530        -1.219485        -0.581843
 C         1.481171         0.022795        -0.143874
 C        -0.010411        -0.149455         0.002203
 C         2.074980         1.147082        -0.898854
 C         3.435700         0.689569        -0.140968
 O         4.711902         1.242812        -0.003703
 C         2.352996         0.229126         1.033205
 H         3.635539        -2.800859         1.192067
 H         4.628270        -2.308899        -0.118024
 H         4.976146        -1.596674         1.453121
 H        -0.015747        -1.142083         0.538420
 H        -0.688959         0.621118         0.573714
 H        -0.582089        -0.218115        -0.942497
 H         1.881321         0.996194        -2.014962
 H         1.700165         2.092983        -0.472791
 H         4.548352         2.203106         0.066423
 H         2.200032         0.418292         2.132594
