19
Iteration:  2725charge 0 multiplicity 1
 C         4.093603        -1.786282         0.729167
 C         3.152439        -0.803360         0.271437
 O         2.058028        -1.266712        -0.520202
 C         1.386811         0.017906        -0.104123
 C        -0.017967        -0.135669         0.023793
 C         2.278077         1.091273        -0.964787
 C         3.401416         0.662473         0.048669
 O         4.690163         1.249073        -0.151022
 C         2.336593         0.222674         1.067566
 H         3.670413        -2.637190         1.323492
 H         4.642901        -2.214527        -0.139205
 H         4.732806        -1.382100         1.490519
 H        -0.241843        -0.956455         0.720686
 H        -0.416637         0.770162         0.356878
 H        -0.602246        -0.565851        -0.901674
 H         2.600985         0.891112        -1.995046
 H         1.863193         2.091734        -0.863215
 H         4.742462         2.166635         0.164229
 H         2.199790         0.456329         2.170077
