19
Iteration:  1382
 C         4.217910        -1.888889         0.646242
 C         3.144903        -0.869723         0.304608
 O         2.069003        -1.315365        -0.453625
 C         1.431915        -0.001332        -0.131459
 C        -0.072570        -0.020096        -0.046518
 C         2.241373         1.045339        -0.960021
 C         3.367393         0.654690        -0.061544
 O         4.573577         1.399381        -0.016169
 C         2.398103         0.177847         1.077593
 H         3.857401        -2.586767         1.378428
 H         4.493902        -2.417289        -0.296623
 H         5.146318        -1.422511         0.866795
 H        -0.359304        -0.269111         0.979516
 H        -0.273425         1.037321        -0.105742
 H        -0.475417        -0.457657        -0.961237
 H         2.308784         0.849286        -2.077706
 H         1.911022         2.048861        -0.717652
 H         4.661755         1.800106         0.862254
 H         2.428732         0.463795         2.094805
