19
Iteration:  3975
 C         4.201710        -1.814839         0.746797
 C         3.159416        -0.805007         0.327776
 O         2.061529        -1.314324        -0.438937
 C         1.459428         0.014757        -0.118342
 C        -0.115554        -0.117706        -0.075577
 C         2.251520         1.067399        -0.965097
 C         3.342091         0.700395        -0.058320
 O         4.659508         1.285928        -0.094435
 C         2.400073         0.222174         1.116541
 H         3.865616        -2.410607         1.621997
 H         4.156729        -2.538696        -0.119648
 H         5.159486        -1.252427         0.977456
 H        -0.484384        -0.766276         0.774345
 H        -0.537355         0.930308        -0.256603
 H        -0.393257        -0.704943        -0.914090
 H         2.303888         0.781778        -2.031031
 H         1.763829         2.074394        -0.867969
 H         4.617851         2.227103        -0.002228
 H         2.363568         0.471936         2.123430
