19
Iteration:  4462charge 0 multiplicity 1
 C         4.320736        -1.809629         0.797027
 C         3.191153        -0.773963         0.247731
 O         2.026405        -1.305505        -0.481396
 C         1.367843         0.018137        -0.179785
 C        -0.053006        -0.015699        -0.038603
 C         2.183751         1.037463        -0.931937
 C         3.347668         0.666593        -0.016211
 O         4.598366         1.221745        -0.042022
 C         2.393872         0.205229         1.030449
 H         3.937105        -2.679516         1.354263
 H         5.085728        -2.167986         0.227037
 H         4.859533        -1.117433         1.485789
 H        -0.360677        -0.729935         0.779908
 H        -0.526414         0.953538         0.161543
 H        -0.449241        -0.463818        -0.885131
 H         2.403729         0.763589        -1.970012
 H         2.035008         2.137465        -0.821365
 H         4.520358         2.019232        -0.545713
 H         2.203385         0.249883         2.137165
