19
Iteration:  3870charge 0 multiplicity 1
 C         4.277148        -1.670591         0.756801
 C         3.215551        -0.812824         0.282578
 O         2.098359        -1.349882        -0.382723
 C         1.351356        -0.040944        -0.092158
 C        -0.124431        -0.016368        -0.135031
 C         2.136459         1.008232        -0.948285
 C         3.363918         0.628110        -0.131724
 O         4.658134         1.151815        -0.053962
 C         2.416486         0.308460         1.046020
 H         3.777721        -2.581750         1.190539
 H         4.979711        -1.944220        -0.048736
 H         4.912852        -1.155908         1.442686
 H        -0.564774        -0.875300         0.430473
 H        -0.433474         0.809554         0.485072
 H        -0.664397         0.208199        -1.111681
 H         2.116393         0.826342        -2.082673
 H         1.868176         2.070327        -0.734736
 H         4.472292         2.018107         0.322359
 H         2.529788         0.499135         2.208145
