19
Iteration:  1305charge 0 multiplicity 1
 C         4.319103        -1.775830         0.669244
 C         3.201249        -0.836483         0.258394
 O         2.038983        -1.282119        -0.402611
 C         1.422331         0.071044        -0.122009
 C        -0.140107        -0.052106        -0.051883
 C         2.098937         1.106790        -1.024499
 C         3.353541         0.623604        -0.104594
 O         4.624659         1.155992         0.091847
 C         2.490042         0.212932         1.047691
 H         3.812707        -2.553555         1.162515
 H         4.872834        -2.161113        -0.180920
 H         4.885780        -1.358597         1.447045
 H        -0.432141        -1.114735         0.003468
 H        -0.460122         0.576911         0.716653
 H        -0.506114         0.223845        -1.070103
 H         2.085992         0.986898        -2.155437
 H         1.894609         2.122921        -0.833966
 H         4.561409         2.110303         0.207445
 H         2.459004         0.544604         2.067336
