19
Iteration:   576
 C         4.390813        -1.745985         0.467149
 C         3.263371        -0.866012         0.352862
 O         2.050343        -1.391362        -0.366627
 C         1.363135        -0.042361        -0.200782
 C        -0.187088         0.100515        -0.131513
 C         2.233637         0.985515        -0.991576
 C         3.283710         0.657732        -0.002364
 O         4.545735         1.201615         0.154459
 C         2.430889         0.294118         1.104606
 H         4.180447        -2.632947         1.026485
 H         4.511760        -2.112694        -0.645721
 H         5.465091        -1.407431         0.751573
 H        -0.550240        -0.367049         0.735170
 H        -0.462441         1.131489         0.040886
 H        -0.531213        -0.373691        -1.048179
 H         2.137728         0.800476        -2.081027
 H         1.952623         2.001704        -0.687393
 H         4.508153         2.144845         0.438374
 H         2.636876         0.802599         2.150171
