19
Iteration:  4661
 C         4.148126        -1.913240         0.735554
 C         3.241992        -0.774624         0.252747
 O         2.038132        -1.203743        -0.420388
 C         1.416095         0.047427        -0.061181
 C        -0.145471        -0.186478        -0.060283
 C         2.124658         1.031293        -0.964446
 C         3.438665         0.726392        -0.061129
 O         4.652697         1.349220        -0.033667
 C         2.463447         0.284665         1.032817
 H         3.570956        -2.806075         1.111911
 H         4.906342        -2.216623        -0.009570
 H         4.673949        -1.638956         1.616041
 H        -0.364355        -0.845059         0.789370
 H        -0.825986         0.662429        -0.001405
 H        -0.535770        -0.710518        -0.977046
 H         2.267845         0.731961        -2.065569
 H         1.776571         2.079772        -0.890213
 H         5.415582         0.875098        -0.477589
 H         2.543448         0.537081         2.138728
