19
Iteration:  3114charge 0 multiplicity 1
 C         4.103754        -1.815501         0.750399
 C         3.160097        -0.785977         0.282971
 O         2.018439        -1.354485        -0.486180
 C         1.456195        -0.092653        -0.136694
 C        -0.103965        -0.030777         0.007457
 C         2.241056         0.952101        -1.048810
 C         3.427597         0.699952        -0.077229
 O         4.691973         1.372684        -0.016930
 C         2.443379         0.276241         1.083276
 H         3.416818        -2.540836         1.259124
 H         4.653901        -2.298699        -0.127778
 H         4.853399        -1.530749         1.456500
 H        -0.332755        -0.870044         0.630892
 H        -0.458910         0.824058         0.756346
 H        -0.634172        -0.043931        -0.871182
 H         2.231965         0.493031        -2.079671
 H         1.937586         2.038793        -0.980582
 H         4.480615         2.290594        -0.049328
 H         2.485498         0.470810         2.170482
