19
Iteration:  3969charge 0 multiplicity 1
 C         4.215545        -1.818956         0.738593
 C         3.194618        -0.794812         0.350108
 O         2.047834        -1.355426        -0.415547
 C         1.380705         0.035328        -0.114831
 C        -0.046053        -0.096540        -0.081728
 C         2.194684         1.071984        -0.980836
 C         3.388502         0.723348        -0.079118
 O         4.640238         1.276554        -0.058565
 C         2.403728         0.216594         1.073053
 H         3.847573        -2.434054         1.568075
 H         4.301114        -2.529439        -0.071386
 H         5.232250        -1.517458         0.899635
 H        -0.383783        -0.596814         0.818455
 H        -0.508697         0.841908        -0.253672
 H        -0.417528        -0.704048        -0.969909
 H         2.286624         0.907952        -2.063545
 H         1.842889         2.093526        -0.888819
 H         4.570059         2.262798        -0.069127
 H         2.174964         0.458001         2.211990
