19
Iteration:  3507charge 0 multiplicity 1
 C         4.308747        -1.719503         0.748209
 C         3.131079        -0.893370         0.362217
 O         1.983099        -1.300999        -0.389701
 C         1.417471        -0.044781        -0.120600
 C        -0.098157        -0.027725        -0.105188
 C         2.177825         1.027689        -1.008807
 C         3.378533         0.639556        -0.156905
 O         4.674506         1.230007        -0.019038
 C         2.438438         0.321102         1.035775
 H         3.740750        -2.510198         1.221293
 H         4.613659        -2.236769        -0.156231
 H         5.183755        -1.408175         1.422889
 H        -0.463492        -0.974094         0.313211
 H        -0.500805         0.870328         0.464582
 H        -0.416854        -0.075551        -1.105299
 H         2.253821         0.835863        -2.080464
 H         1.797239         2.002773        -0.723170
 H         4.469255         2.080489         0.426483
 H         2.487124         0.477482         2.154553
