19
Iteration:  1361charge 0 multiplicity 1
 C         4.202719        -1.888066         0.702401
 C         3.264387        -0.807732         0.288292
 O         2.087540        -1.270040        -0.611917
 C         1.421043        -0.048035        -0.124450
 C        -0.090782         0.044895         0.055531
 C         2.269140         0.970952        -0.995335
 C         3.315821         0.702417         0.023300
 O         4.544068         1.351860        -0.050666
 C         2.384894         0.194505         1.096951
 H         3.684989        -2.500526         1.362328
 H         4.522408        -2.534598        -0.145161
 H         5.114683        -1.506254         0.995748
 H        -0.179583        -0.670716         0.892460
 H        -0.571422         1.007888         0.353156
 H        -0.473219        -0.203412        -0.934450
 H         2.518044         0.550428        -1.992054
 H         1.913597         2.011771        -0.909532
 H         4.878393         1.750122         0.787187
 H         2.010917         0.328978         2.078185
