19
Iteration:  2144
 C         4.369608        -1.707313         0.560775
 C         3.134219        -0.815161         0.305202
 O         1.947855        -1.316110        -0.354735
 C         1.397248        -0.034603        -0.090819
 C        -0.109580         0.062601        -0.080039
 C         2.172162         0.943780        -1.001379
 C         3.413208         0.582684        -0.125894
 O         4.586911         1.182715         0.101020
 C         2.493237         0.253872         1.056606
 H         3.982576        -2.279252         1.363905
 H         4.718610        -2.204621        -0.306872
 H         5.069728        -1.153007         1.113547
 H        -0.627056        -0.511452         0.578867
 H        -0.203089         1.187116        -0.001068
 H        -0.402830        -0.293964        -1.147044
 H         2.339490         0.661221        -2.034660
 H         1.950406         1.966101        -0.802104
 H         4.340616         2.129896         0.190226
 H         2.561631         0.754529         2.074382
