19
Iteration:  1974charge 0 multiplicity 1
 C         4.306858        -1.751254         0.499813
 C         3.185077        -0.847442         0.318524
 O         1.969445        -1.296417        -0.290873
 C         1.417821         0.028971        -0.088404
 C        -0.083169         0.030591        -0.166516
 C         2.186616         0.890751        -1.003392
 C         3.377164         0.639829        -0.030387
 O         4.649601         1.234605         0.034576
 C         2.400050         0.275161         1.089248
 H         4.068627        -2.432017         1.224300
 H         4.604138        -2.284620        -0.390799
 H         5.043156        -0.968482         0.753233
 H        -0.416264        -0.627229         0.639257
 H        -0.324217         1.055321         0.042854
 H        -0.422027        -0.346492        -1.110628
 H         2.167262         0.546589        -2.019824
 H         1.800011         1.948048        -0.857075
 H         4.735374         1.972144         0.702890
 H         2.085754         0.486459         2.152271
