19
Iteration:  1883
 C         4.164087        -1.803537         0.804631
 C         3.244616        -0.795601         0.234858
 O         2.065179        -1.299292        -0.594102
 C         1.412361         0.040930        -0.086885
 C        -0.083025        -0.010948         0.029647
 C         2.158305         0.986677        -0.964386
 C         3.443887         0.624325        -0.067859
 O         4.619594         1.275908        -0.058366
 C         2.415603         0.206098         1.021871
 H         3.624447        -2.649240         1.279894
 H         4.872505        -2.354245         0.183205
 H         4.771694        -1.266193         1.543661
 H        -0.390874        -0.745102         0.682131
 H        -0.410696         0.956294         0.435599
 H        -0.690445        -0.265762        -0.870672
 H         2.124202         0.789687        -2.053883
 H         1.983978         2.010879        -0.621778
 H         4.413261         2.036270         0.536794
 H         2.412504         0.449574         2.103822
