19
Iteration:  4327charge 0 multiplicity 1
 C         4.269676        -1.749508         0.796766
 C         3.209585        -0.803037         0.329243
 O         2.083464        -1.305188        -0.553624
 C         1.385289        -0.016725        -0.142501
 C        -0.153502        -0.063494        -0.048697
 C         2.174486         1.058872        -0.919706
 C         3.410784         0.627239        -0.095877
 O         4.667904         1.240040        -0.021482
 C         2.375601         0.226883         1.100291
 H         3.782459        -2.453126         1.421220
 H         4.393040        -2.386851        -0.062129
 H         5.167856        -1.337496         1.194954
 H        -0.413332        -0.526951         0.841258
 H        -0.662975         0.875049        -0.220650
 H        -0.531720        -0.782543        -0.831010
 H         2.048134         0.946176        -2.033237
 H         1.847722         2.063168        -0.629866
 H         4.527530         2.165335        -0.306409
 H         2.494731         0.677576         2.048925
