19
Iteration:  2731
 C         4.123238        -1.845958         0.763792
 C         3.113853        -0.779367         0.314823
 O         2.071897        -1.230597        -0.559463
 C         1.435868         0.014047        -0.083594
 C        -0.060178        -0.148132         0.018554
 C         2.296533         1.075909        -0.980108
 C         3.344507         0.685017        -0.010945
 O         4.696969         1.253213        -0.142124
 C         2.319253         0.185855         1.080691
 H         3.662024        -2.615925         1.363236
 H         4.672640        -2.224057        -0.095349
 H         4.839143        -1.189473         1.370816
 H        -0.241010        -0.914027         0.790957
 H        -0.519617         0.811920         0.484938
 H        -0.582453        -0.483091        -0.839502
 H         2.558169         0.854369        -2.055064
 H         2.062607         2.182296        -0.779996
 H         4.779358         2.171848         0.090107
 H         2.322679         0.359885         2.103313
