19
Iteration:  1966
 C         4.385590        -1.804380         0.537031
 C         3.174611        -0.844870         0.235948
 O         1.935432        -1.308820        -0.284832
 C         1.395868         0.039963        -0.061308
 C        -0.089241        -0.011241        -0.170716
 C         2.193094         0.971744        -1.003021
 C         3.350592         0.685047        -0.014621
 O         4.626158         1.175104         0.052758
 C         2.451787         0.325099         1.108522
 H         4.119748        -2.602878         1.329927
 H         4.696448        -2.273687        -0.418420
 H         5.198005        -1.126871         0.809651
 H        -0.615501        -0.676591         0.714331
 H        -0.498237         1.005648        -0.015585
 H        -0.322586        -0.244904        -1.197838
 H         2.400589         0.679193        -2.082083
 H         1.641252         1.896043        -1.149294
 H         4.455784         2.005620         0.573372
 H         2.321738         0.700410         2.033622
