19
Iteration:  3743charge 0 multiplicity 1
 C         4.372595        -1.743365         0.704672
 C         3.132911        -0.923374         0.406801
 O         1.975100        -1.360697        -0.422317
 C         1.441610         0.036906        -0.172483
 C        -0.131962         0.030174        -0.113658
 C         2.213938         0.996537        -1.011633
 C         3.321241         0.660651        -0.079425
 O         4.648920         1.254787        -0.025438
 C         2.437417         0.250039         1.066334
 H         4.343745        -2.497931         1.497403
 H         4.665516        -2.167809        -0.264337
 H         5.132341        -1.019702         1.097243
 H        -0.452207        -0.499079         0.796322
 H        -0.789260         0.971017         0.024874
 H        -0.670544        -0.690590        -0.861751
 H         2.258970         0.642290        -2.023640
 H         1.734010         1.986008        -0.854534
 H         4.620318         2.081546         0.465366
 H         2.451720         0.755856         2.133232
