19
Iteration:   929charge 0 multiplicity 1
 C         4.341380        -1.723613         0.555587
 C         3.111567        -0.871317         0.349845
 O         1.976719        -1.347929        -0.474619
 C         1.360020         0.051273        -0.077066
 C        -0.183954        -0.030487        -0.108893
 C         2.239949         1.067496        -1.001215
 C         3.369897         0.718294        -0.036978
 O         4.676376         1.190589         0.095679
 C         2.509165         0.213464         1.106792
 H         4.115003        -2.632668         1.196185
 H         4.751660        -1.946181        -0.448794
 H         4.996654        -1.034298         1.069827
 H        -0.318463        -1.125922         0.210742
 H        -0.751927         0.696984         0.587705
 H        -0.653315        -0.254626        -1.077485
 H         2.500936         0.725479        -2.023117
 H         1.599017         2.031799        -1.009489
 H         4.678768         2.156154         0.316945
 H         2.388161         0.360630         2.244683
