19
Iteration:   211charge 0 multiplicity 1
 C         4.309484        -1.702361         0.548518
 C         3.108539        -0.869392         0.348513
 O         2.021140        -1.329886        -0.384484
 C         1.382896         0.050785        -0.154653
 C        -0.087913         0.034179        -0.149188
 C         2.274599         1.034266        -0.844741
 C         3.428204         0.557870        -0.033561
 O         4.545791         1.332838         0.024335
 C         2.354219         0.144914         1.088773
 H         4.253767        -2.593726         1.220067
 H         4.534395        -2.002305        -0.405924
 H         5.256456        -1.180316         0.869812
 H        -0.402539        -0.747632         0.508816
 H        -0.372810         0.984008         0.158034
 H        -0.521904        -0.190693        -1.139828
 H         2.323442         0.890145        -1.929049
 H         1.915764         2.052775        -0.600218
 H         5.410514         0.916706        -0.234114
 H         2.014933         0.387542         2.135581
