19
Iteration:  1436
 C         4.299117        -1.690344         0.526114
 C         3.177458        -0.800195         0.361262
 O         2.053842        -1.299579        -0.418170
 C         1.402678         0.095758        -0.107636
 C        -0.120745        -0.027746        -0.084068
 C         2.223211         0.983088        -0.991796
 C         3.324414         0.690065        -0.013723
 O         4.620505         1.105665         0.057405
 C         2.415465         0.240014         1.146883
 H         3.971304        -2.630203         1.045722
 H         4.548529        -2.216157        -0.473072
 H         5.185491        -1.271191         1.025067
 H        -0.546145        -0.761220         0.642333
 H        -0.514709         0.977363        -0.152393
 H        -0.354630        -0.450582        -1.156774
 H         2.276041         0.654999        -2.068287
 H         1.811301         1.973803        -0.815410
 H         4.714869         2.053028        -0.058491
 H         2.192009         0.447195         2.206558
