19
Iteration:  2297
 C         4.319357        -1.693998         0.617717
 C         3.143082        -0.832403         0.332755
 O         2.011120        -1.370725        -0.379723
 C         1.414441         0.043893        -0.130283
 C        -0.116127         0.016477        -0.068089
 C         2.184495         1.013052        -1.003136
 C         3.396223         0.593346        -0.104155
 O         4.641698         1.148107         0.020370
 C         2.378952         0.271397         1.086344
 H         4.063076        -2.652622         1.059636
 H         5.010890        -1.925162        -0.193333
 H         4.889704        -1.150910         1.408678
 H        -0.463845        -0.662018         0.618038
 H        -0.432340         1.038928         0.276990
 H        -0.479447        -0.094897        -1.136717
 H         2.021015         0.847647        -2.133607
 H         2.052297         2.071330        -0.727084
 H         4.573573         2.080660         0.172450
 H         2.404853         0.619608         2.089501
