19
Iteration:  3738charge 0 multiplicity 1
 C         4.336166        -1.725143         0.705343
 C         3.170206        -0.856166         0.402134
 O         1.992645        -1.299446        -0.396777
 C         1.444778        -0.045306        -0.186058
 C        -0.141327         0.019241        -0.109269
 C         2.246251         1.013069        -1.003013
 C         3.326699         0.679017        -0.043206
 O         4.610721         1.191505        -0.044290
 C         2.428349         0.213747         1.076590
 H         4.320156        -2.551608         1.469948
 H         4.659867        -2.104203        -0.289545
 H         5.082892        -1.024230         1.039775
 H        -0.407105        -0.581534         0.775844
 H        -0.528681         0.997525        -0.041026
 H        -0.670434        -0.552834        -0.817992
 H         2.282453         0.773429        -2.112718
 H         1.642399         1.930319        -0.937383
 H         4.486795         2.080443         0.370530
 H         2.475629         0.735092         1.947117
