19
Iteration:  1333charge 0 multiplicity 1
 C         4.194301        -1.799374         0.711950
 C         3.149563        -0.875940         0.251295
 O         1.980010        -1.295302        -0.497322
 C         1.443080        -0.014467        -0.146160
 C        -0.151520        -0.068760         0.038115
 C         2.203709         1.055143        -1.020028
 C         3.427462         0.606709        -0.107139
 O         4.657065         1.353095         0.044822
 C         2.506106         0.211674         0.993454
 H         3.664064        -2.498028         1.471415
 H         4.783915        -2.223910        -0.119425
 H         4.994219        -1.163868         1.278778
 H        -0.377558        -1.072843         0.429855
 H        -0.445435         0.712331         0.804433
 H        -0.436072         0.082121        -0.999413
 H         2.241144         1.033181        -2.107250
 H         1.944095         2.113027        -0.683975
 H         4.642318         1.862826         0.865997
 H         2.256052         0.413098         2.087867
