19
Iteration:  4598
 C         4.301451        -1.645275         0.745525
 C         3.197472        -0.847950         0.295107
 O         1.988605        -1.314751        -0.486400
 C         1.360049        -0.089070        -0.052394
 C        -0.126793         0.101276        -0.053513
 C         2.206988         0.947146        -0.964720
 C         3.443686         0.576389        -0.148308
 O         4.570345         1.336481        -0.029882
 C         2.427870         0.151785         1.066062
 H         4.029119        -2.409487         1.443106
 H         4.708776        -2.141580        -0.219033
 H         5.099435        -1.025528         1.088246
 H        -0.615079        -0.765928         0.314053
 H        -0.319814         0.901033         0.669106
 H        -0.455509         0.258976        -1.162961
 H         2.128070         0.662844        -2.031322
 H         1.841635         1.941707        -0.759249
 H         5.343518         1.146734         0.533406
 H         2.293606         0.316455         2.184054
