19
Iteration:  2578
 C         4.187799        -1.840544         0.756316
 C         3.224868        -0.873409         0.242389
 O         1.916268        -1.255749        -0.422352
 C         1.421982        -0.007995        -0.112974
 C        -0.058724        -0.145779        -0.103592
 C         2.192151         1.119530        -0.976185
 C         3.412564         0.723869        -0.117463
 O         4.703202         1.262838        -0.030406
 C         2.470696         0.259323         1.053202
 H         3.769121        -2.191104         1.708413
 H         4.285178        -2.720887         0.142895
 H         5.223567        -1.438440         1.007320
 H        -0.254966        -0.948163         0.671319
 H        -0.490623         0.746929         0.472751
 H        -0.741555        -0.336610        -0.894475
 H         2.019434         0.997879        -2.082443
 H         1.833129         2.184270        -0.727371
 H         4.580155         2.175604         0.335751
 H         2.385726         0.163239         2.157427
