19
Iteration:  3368
 C         4.299464        -1.784172         0.596215
 C         3.130223        -0.858408         0.349981
 O         1.987292        -1.284426        -0.318113
 C         1.385131         0.016878        -0.190740
 C        -0.060460        -0.029575        -0.154240
 C         2.297876         0.985609        -0.983392
 C         3.376644         0.681134         0.005002
 O         4.605588         1.157599        -0.041715
 C         2.315178         0.317156         1.169605
 H         4.283990        -2.520707         1.365673
 H         4.742350        -2.201715        -0.301444
 H         5.173954        -1.076160         0.803191
 H        -0.516737        -0.533809         0.725233
 H        -0.532359         0.899867        -0.261525
 H        -0.332089        -0.722256        -0.994399
 H         2.439040         0.840174        -2.066332
 H         2.045535         2.005258        -0.586512
 H         4.744075         2.144666        -0.109167
 H         2.261813         0.807434         2.137175
