19
Iteration:  4917charge 0 multiplicity 1
 C         4.291379        -1.778369         0.540748
 C         3.200169        -0.800695         0.397439
 O         1.996217        -1.308449        -0.384986
 C         1.384702         0.078131        -0.159257
 C        -0.118594         0.009462        -0.064114
 C         2.222424         0.939669        -1.026892
 C         3.352216         0.626889        -0.048965
 O         4.560273         1.240583         0.155698
 C         2.471963         0.226878         1.062591
 H         3.988314        -2.732330         0.972150
 H         4.692381        -1.813879        -0.535414
 H         5.225286        -1.292238         1.059989
 H        -0.409518        -0.590609         0.878643
 H        -0.669191         0.972598        -0.084280
 H        -0.381187        -0.481239        -0.973580
 H         2.498257         0.848861        -2.115305
 H         1.759959         1.975483        -0.794822
 H         5.048332         1.307765        -0.686830
 H         2.417219         0.830099         2.002175
