19
Iteration:  3242
 C         4.150428        -1.838822         0.696645
 C         3.246742        -0.785120         0.341669
 O         2.016803        -1.304452        -0.349673
 C         1.415666        -0.038558        -0.112089
 C        -0.056744        -0.079860        -0.126497
 C         2.149770         1.041795        -0.990709
 C         3.363646         0.741513        -0.110719
 O         4.660197         1.241910         0.015460
 C         2.489531         0.269452         1.000572
 H         3.663741        -2.554417         1.404180
 H         4.625491        -2.507299        -0.037214
 H         4.899594        -1.433334         1.309085
 H        -0.384526        -0.753014         0.698051
 H        -0.456722         0.992550         0.149075
 H        -0.652991        -0.448727        -0.980199
 H         2.150397         0.772371        -2.050241
 H         2.069865         2.094774        -0.986678
 H         4.617173         2.233168        -0.151577
 H         2.263786         0.443414         2.065687
