19
Iteration:  1137
 C         4.202561        -1.815192         0.629184
 C         3.219204        -0.779756         0.170311
 O         2.000355        -1.303745        -0.431099
 C         1.419079        -0.060316        -0.043658
 C        -0.033957        -0.047264        -0.116431
 C         2.103973         1.014781        -0.949506
 C         3.319024         0.749594        -0.065443
 O         4.669689         1.239015         0.095316
 C         2.503107         0.235031         1.078348
 H         3.758860        -2.553533         1.393085
 H         4.596158        -2.430659        -0.110304
 H         4.885260        -1.288309         1.292534
 H        -0.498879        -0.958748         0.184470
 H        -0.227870         0.954823         0.390403
 H        -0.318641         0.026191        -1.176277
 H         2.098306         0.610563        -1.946013
 H         1.751678         2.072286        -0.754392
 H         4.760673         2.195841         0.073819
 H         2.411041         0.406880         2.050887
