19
Iteration:  4953charge 0 multiplicity 1
 C         4.220818        -1.879194         0.579270
 C         3.187035        -0.776782         0.318302
 O         1.974193        -1.266208        -0.360624
 C         1.368684         0.071583        -0.085772
 C        -0.121502        -0.094980        -0.146114
 C         2.203373         1.019556        -0.973074
 C         3.381194         0.763857        -0.051419
 O         4.680066         1.343152         0.085554
 C         2.497660         0.212549         1.091749
 H         3.916238        -2.471668         1.515628
 H         4.160535        -2.627901        -0.196016
 H         5.205776        -1.530255         0.778828
 H        -0.195208        -1.125904         0.302647
 H        -0.856896         0.669835         0.222838
 H        -0.298787        -0.407229        -1.202070
 H         2.114505         0.795657        -2.064932
 H         1.780678         2.013472        -0.805620
 H         5.152107         0.820318        -0.606824
 H         2.437300         0.415287         2.130875
