19
Iteration:  4793charge 0 multiplicity 1
 C         4.225029        -1.887001         0.666384
 C         3.152861        -0.783831         0.260717
 O         2.053070        -1.239484        -0.388821
 C         1.370454         0.017461        -0.155239
 C        -0.131446        -0.179146        -0.106907
 C         2.176329         1.043889        -0.967274
 C         3.385360         0.660548        -0.033285
 O         4.635273         1.313354         0.004961
 C         2.476497         0.354475         1.212792
 H         3.878213        -2.540000         1.502214
 H         4.321872        -2.649812        -0.199470
 H         5.193382        -1.452516         0.776686
 H        -0.300852        -1.177501         0.059616
 H        -0.639321         0.434999         0.606495
 H        -0.535933         0.078290        -1.151111
 H         2.171754         0.789865        -2.068448
 H         1.980833         2.106840        -0.827413
 H         5.202222         1.224215        -0.786199
 H         2.582296         0.860778         2.171004
