19
Iteration:   495
 C         4.203298        -1.803780         0.781777
 C         3.194503        -0.804902         0.237573
 O         2.083863        -1.359147        -0.585911
 C         1.398007         0.007296        -0.149301
 C        -0.014180        -0.049458        -0.013483
 C         2.027537         1.155218        -0.869005
 C         3.332346         0.669404        -0.133324
 O         4.702410         1.226971         0.035902
 C         2.514338         0.187846         1.059100
 H         3.507159        -2.601727         1.198078
 H         4.599987        -2.241531        -0.066430
 H         4.812359        -1.364444         1.502786
 H        -0.169115        -1.072598         0.453747
 H        -0.464236         0.907322         0.392617
 H        -0.477137        -0.091616        -1.044925
 H         1.959088         1.018977        -1.969761
 H         1.522473         2.046299        -0.409182
 H         4.670599         2.201225         0.239824
 H         2.329702         0.532500         1.993195
