19
Iteration:  3645
 C         4.175480        -1.813014         0.768580
 C         3.189486        -0.827748         0.354272
 O         2.045701        -1.322506        -0.446215
 C         1.438122        -0.104155        -0.157365
 C        -0.063557        -0.028289        -0.016446
 C         2.155282         1.005814        -1.050495
 C         3.397124         0.657032        -0.111828
 O         4.672342         1.337900        -0.052741
 C         2.447361         0.295446         1.052360
 H         3.836682        -2.605836         1.444518
 H         4.659662        -2.221749        -0.119153
 H         4.809451        -1.275614         1.455923
 H        -0.604433        -0.892121         0.396587
 H        -0.243684         0.943731         0.584292
 H        -0.755123        -0.024872        -1.008886
 H         2.123506         0.664099        -2.149546
 H         1.616538         1.976979        -1.014063
 H         4.734621         1.956949         0.676844
 H         2.202316         0.574065         2.097942
