19
Iteration:  2240
 C         4.180989        -1.813411         0.768266
 C         3.181632        -0.823364         0.319215
 O         1.996754        -1.292241        -0.440513
 C         1.450106        -0.010858        -0.118413
 C        -0.085439        -0.076040        -0.007520
 C         2.165933         1.053499        -0.951981
 C         3.420649         0.658993        -0.107630
 O         4.668953         1.261149        -0.050042
 C         2.510529         0.252935         0.984301
 H         3.495963        -2.542673         1.367422
 H         4.577424        -2.284033        -0.162608
 H         4.874970        -1.403969         1.491954
 H        -0.682091        -0.870869         0.453452
 H        -0.633004         0.910313         0.074872
 H        -0.303504        -0.300790        -1.078575
 H         2.053301         1.039065        -2.109877
 H         1.840629         2.050344        -0.533720
 H         4.481160         2.245725         0.073132
 H         2.491376         0.315124         2.093113
