19
Iteration:  1716charge 0 multiplicity 1
 C         4.072016        -1.834066         0.795758
 C         3.152221        -0.817075         0.300478
 O         2.090097        -1.319420        -0.493313
 C         1.402564         0.017109        -0.126291
 C        -0.008122        -0.044356         0.006499
 C         2.214849         1.019284        -1.035892
 C         3.364551         0.650742        -0.018692
 O         4.665026         1.355525        -0.073230
 C         2.431541         0.209822         1.030788
 H         3.612108        -2.857561         0.939051
 H         4.548115        -2.130029        -0.165056
 H         4.958019        -1.457196         1.320091
 H        -0.201819        -0.880788         0.767510
 H        -0.433945         0.847912         0.476270
 H        -0.706791        -0.349847        -0.771663
 H         2.437560         0.645221        -2.096593
 H         1.946301         2.059986        -0.843327
 H         4.561965         2.251231         0.349982
 H         2.376350         0.442833         2.107727
