19
Iteration:  2934
 C         4.197398        -1.847657         0.745710
 C         3.222928        -0.832871         0.323965
 O         2.089202        -1.326996        -0.491305
 C         1.406557        -0.028686        -0.115915
 C        -0.105805        -0.078691        -0.030749
 C         2.203877         1.098625        -0.943259
 C         3.369453         0.642117        -0.081367
 O         4.641258         1.282258        -0.099854
 C         2.423604         0.292880         1.033246
 H         3.569015        -2.470031         1.385523
 H         4.592217        -2.482137        -0.046218
 H         4.867672        -1.419108         1.550343
 H        -0.436499        -0.962373         0.591030
 H        -0.370029         0.867401         0.345865
 H        -0.545947        -0.036743        -0.997155
 H         2.033934         1.047777        -2.085120
 H         1.901903         2.148477        -0.655031
 H         4.445338         1.966274         0.570751
 H         2.378471         0.668093         2.065168
