19
Iteration:   690
 C         4.195800        -1.769688         0.688219
 C         3.254405        -0.744352         0.160260
 O         1.995713        -1.266298        -0.451507
 C         1.389967        -0.006513        -0.086515
 C        -0.190176        -0.077288        -0.040800
 C         2.301971         1.058908        -0.969560
 C         3.397689         0.672961        -0.097468
 O         4.617076         1.301214         0.041955
 C         2.501130         0.089018         1.112582
 H         3.393566        -2.610246         1.013755
 H         4.830800        -2.238632        -0.131320
 H         4.695731        -1.528315         1.631057
 H        -0.417486        -1.172326         0.221178
 H        -0.662862         0.348095         0.882043
 H        -0.600510         0.014489        -1.036413
 H         2.409313         0.726536        -2.025571
 H         1.903942         2.100873        -0.733797
 H         4.385526         2.246042        -0.127671
 H         2.783733         0.446883         2.114313
