19
Iteration:   876charge 0 multiplicity 1
 C         4.302545        -1.786553         0.669429
 C         3.184363        -0.932896         0.305441
 O         2.037129        -1.382320        -0.462890
 C         1.343865         0.038542        -0.172535
 C        -0.120269         0.001133        -0.056135
 C         2.156317         1.082784        -1.009793
 C         3.400299         0.656445        -0.008897
 O         4.617430         1.314539         0.068446
 C         2.500373         0.211211         1.002132
 H         4.004699        -2.851211         1.042940
 H         4.713700        -1.880800        -0.334650
 H         4.912689        -1.407331         1.474582
 H        -0.534446        -0.901491         0.433508
 H        -0.391512         0.768013         0.764389
 H        -0.615989         0.383611        -0.927778
 H         2.221297         0.830888        -2.061391
 H         1.856249         2.099667        -0.647117
 H         4.385160         2.269168         0.198019
 H         2.499392         0.085597         2.067048
