19
Iteration:    72
 C         4.384378        -1.827677         0.533635
 C         3.194243        -0.913340         0.295126
 O         1.937636        -1.309315        -0.374281
 C         1.420535         0.027610        -0.056046
 C        -0.086079         0.016449        -0.097893
 C         2.201482         1.055916        -0.932878
 C         3.349190         0.708600        -0.088850
 O         4.566534         1.361184         0.162353
 C         2.406651         0.164299         0.999908
 H         4.058224        -2.664632         1.225898
 H         4.727000        -2.366528        -0.427169
 H         5.210533        -1.361054         1.173296
 H        -0.573830        -0.844968         0.429877
 H        -0.504129         1.084470         0.016259
 H        -0.377368        -0.268911        -1.174205
 H         2.295044         0.724598        -2.004327
 H         1.872691         2.105693        -0.802533
 H         5.202633         1.136655        -0.513031
 H         2.301387         0.413992         2.101605
