19
Iteration:   626
 C         4.221555        -1.736472         0.630923
 C         3.186803        -0.865414         0.213987
 O         2.040826        -1.283086        -0.588673
 C         1.391994        -0.015604        -0.101489
 C        -0.139571        -0.061926        -0.036605
 C         2.306987         1.056410        -0.880609
 C         3.346205         0.734169         0.062578
 O         4.588810         1.221890        -0.030496
 C         2.446894         0.227900         1.132502
 H         3.794562        -2.413097         1.477687
 H         4.650244        -2.331330        -0.144510
 H         5.082858        -1.232993         0.964413
 H        -0.397958        -0.650782         0.927303
 H        -0.549067         1.029795        -0.022420
 H        -0.469829        -0.780576        -0.791082
 H         2.503355         0.767925        -1.954572
 H         1.780809         2.027231        -1.034114
 H         4.791076         2.032877         0.499833
 H         2.339804         0.027513         2.178874
