19
Iteration:  4963charge 0 multiplicity 1
 C         4.170764        -1.871815         0.613550
 C         3.158406        -0.862377         0.318095
 O         2.068267        -1.230948        -0.461931
 C         1.455928        -0.025738        -0.043033
 C        -0.123034        -0.069428        -0.164851
 C         2.188899         1.040851        -0.971649
 C         3.352281         0.749935        -0.033612
 O         4.620372         1.345978         0.030595
 C         2.493614         0.248970         1.147145
 H         3.864917        -2.203777         1.683367
 H         4.209845        -2.765854        -0.006100
 H         5.227693        -1.554101         0.677984
 H        -0.481690        -0.999599         0.456258
 H        -0.863519         0.628365         0.351748
 H        -0.543414        -0.139487        -1.134039
 H         2.118913         0.853666        -2.082559
 H         1.858045         2.073503        -0.694415
 H         5.341344         0.817480        -0.453330
 H         2.619855         0.502270         2.175645
