19
Iteration:  3093
 C         4.126726        -1.940959         0.788136
 C         3.225063        -0.793948         0.358182
 O         2.225177        -1.220835        -0.474591
 C         1.382336         0.016174        -0.135351
 C        -0.073815        -0.023277         0.045214
 C         2.178085         0.984351        -1.008430
 C         3.335094         0.741513        -0.084160
 O         4.632750         1.257722        -0.117966
 C         2.373567         0.222339         1.019060
 H         3.443756        -2.664050         1.279916
 H         4.763050        -2.420856         0.012211
 H         4.821886        -1.647044         1.552731
 H        -0.364923        -0.842187         0.645791
 H        -0.601388         0.829050         0.464642
 H        -0.443028        -0.077082        -0.951671
 H         2.258315         0.732678        -2.047980
 H         1.807972         2.010485        -0.842439
 H         4.676939         2.253467        -0.053480
 H         2.087288         0.328478         2.079685
