19
Iteration:  2411
 C         4.242392        -1.858002         0.800604
 C         3.231107        -0.869169         0.184039
 O         1.983197        -1.208637        -0.425545
 C         1.331836         0.073250        -0.040638
 C        -0.110759        -0.095374        -0.110060
 C         2.119923         1.042610        -0.951424
 C         3.422657         0.618129        -0.151522
 O         4.609779         1.240619         0.042977
 C         2.633324         0.232920         1.050627
 H         3.737413        -2.537811         1.524201
 H         4.535625        -2.513167        -0.039709
 H         5.049309        -1.318992         1.183881
 H        -0.658238        -0.834639         0.610670
 H        -0.491861         0.882200         0.221179
 H        -0.420047        -0.152280        -1.145818
 H         2.314565         0.953274        -2.016294
 H         1.716886         2.090745        -0.836276
 H         4.450463         2.103742        -0.331646
 H         2.567485         0.644491         2.031419
