19
Iteration:  4851charge 0 multiplicity 1
 C         4.294450        -1.860890         0.765187
 C         3.192453        -0.922013         0.207012
 O         2.054796        -1.273209        -0.516126
 C         1.452673        -0.008392        -0.106469
 C        -0.132845         0.048040         0.083402
 C         2.180649         1.013722        -1.012813
 C         3.422640         0.635015        -0.100195
 O         4.511944         1.389207         0.021096
 C         2.400179         0.211337         1.021095
 H         3.912580        -2.797956         1.092753
 H         4.957315        -1.972234        -0.101407
 H         4.791332        -1.413467         1.711265
 H        -0.508753        -0.701468         0.864680
 H        -0.532353         1.071354         0.232117
 H        -0.340316        -0.338701        -0.902071
 H         2.275323         1.071694        -2.136872
 H         1.869358         2.042167        -0.624664
 H         5.298220         0.844837        -0.114691
 H         2.213644         0.505944         2.064884
