19
Iteration:  4061charge 0 multiplicity 1
 C         4.330351        -1.738611         0.664501
 C         3.166667        -0.890997         0.363496
 O         2.044493        -1.264574        -0.387943
 C         1.428280         0.026013        -0.106036
 C        -0.121063         0.027511        -0.019104
 C         2.247190         0.845585        -1.123038
 C         3.335368         0.713043        -0.095716
 O         4.613742         1.267125         0.028510
 C         2.360325         0.182890         1.100507
 H         4.070449        -2.754279         1.034868
 H         5.140508        -1.924678        -0.084266
 H         5.039394        -1.192562         1.347367
 H        -0.667890        -0.816156         0.477030
 H        -0.621027         0.930224         0.522936
 H        -0.487790         0.235823        -0.999338
 H         2.306406         0.378796        -2.158369
 H         1.994661         1.979554        -1.300139
 H         4.529232         2.249481        -0.010911
 H         1.931750         0.447465         1.969620
