19
Iteration:  3487
 C         4.141450        -1.796140         0.788377
 C         3.242641        -0.818488         0.211877
 O         2.110645        -1.316789        -0.440008
 C         1.407845         0.016264        -0.098779
 C        -0.090404         0.029687        -0.007888
 C         2.157185         0.939100        -1.065803
 C         3.339873         0.720055        -0.114320
 O         4.633731         1.213393         0.025163
 C         2.475923         0.213181         1.040287
 H         3.800359        -2.578421         1.397488
 H         4.863899        -2.103823         0.027631
 H         4.910282        -1.074460         1.243699
 H        -0.461756        -0.952416         0.465249
 H        -0.497122         0.882532         0.635377
 H        -0.511503         0.157117        -1.104972
 H         2.081546         0.453832        -2.009352
 H         1.970518         1.975731        -0.900034
 H         4.454167         2.116429         0.238282
 H         2.123136         0.691753         2.052746
