19
Iteration:  1532charge 0 multiplicity 1
 C         4.166500        -1.908196         0.712590
 C         3.178847        -0.865489         0.315565
 O         2.091194        -1.333029        -0.472587
 C         1.444006         0.046446        -0.146727
 C        -0.117352        -0.016563         0.020536
 C         2.254723         1.053017        -1.044281
 C         3.394393         0.723299        -0.052705
 O         4.567835         1.365256        -0.070981
 C         2.463888         0.215744         1.090257
 H         3.667465        -2.777667         1.288617
 H         4.468583        -2.551623        -0.088810
 H         4.923982        -1.549944         1.428682
 H        -0.304035        -0.918797         0.599625
 H        -0.271363         0.915436         0.414989
 H        -0.686372        -0.285017        -0.912267
 H         2.481491         0.870262        -2.146079
 H         1.907224         2.026970        -0.883767
 H         4.398270         2.141536         0.503717
 H         2.186370         0.204524         2.198739
