19
Iteration:  3328charge 0 multiplicity 1
 C         4.204761        -1.729498         0.712071
 C         3.206281        -0.791931         0.238648
 O         2.036700        -1.324581        -0.376337
 C         1.419649        -0.069756        -0.084151
 C        -0.081706         0.056151        -0.093222
 C         2.180897         0.944223        -1.105247
 C         3.304846         0.641523        -0.088931
 O         4.702182         1.218082         0.061403
 C         2.395764         0.241482         1.074821
 H         3.776752        -2.492723         1.455534
 H         4.724435        -2.088469        -0.233096
 H         4.851226        -1.023544         1.178745
 H        -0.329718        -0.698630         0.658117
 H        -0.397790         0.985394         0.415470
 H        -0.607802        -0.040321        -1.096314
 H         2.297347         0.680094        -2.187316
 H         1.847710         1.971539        -0.836644
 H         4.652232         2.177126         0.094906
 H         2.530892         0.283713         2.199546
