19
Iteration:  4091charge 0 multiplicity 1
 C         4.233169        -1.716858         0.625399
 C         3.152017        -0.772464         0.354335
 O         2.035117        -1.419732        -0.361860
 C         1.422663        -0.056418        -0.152958
 C        -0.073055         0.074254        -0.047786
 C         2.291179         0.890231        -1.038774
 C         3.399246         0.627339        -0.073367
 O         4.578989         1.330450        -0.020286
 C         2.382208         0.257827         1.084098
 H         3.936214        -2.650963         1.024535
 H         4.748016        -2.058744        -0.243438
 H         5.032199        -1.369052         1.358684
 H        -0.468313        -0.648031         0.617220
 H        -0.488053         1.112069         0.062045
 H        -0.608689        -0.266094        -0.967179
 H         2.368756         0.751196        -2.115426
 H         1.950527         1.892116        -0.730776
 H         4.384236         2.160839         0.400435
 H         2.362631         0.417925         2.154371
