19
Iteration:  4191
 C         4.250439        -1.767392         0.732296
 C         3.216286        -0.819903         0.293675
 O         2.112465        -1.282535        -0.456615
 C         1.473887         0.003334        -0.076034
 C        -0.086562        -0.068272        -0.066800
 C         2.185712         1.046491        -1.042168
 C         3.289932         0.630868        -0.114699
 O         4.575136         1.183738         0.003252
 C         2.382778         0.249251         1.104819
 H         4.019388        -2.272151         1.691628
 H         4.570429        -2.461342        -0.061797
 H         5.132042        -1.215518         1.147307
 H        -0.693638        -0.833699         0.518871
 H        -0.494942         0.927421         0.371681
 H        -0.476132        -0.174024        -1.091000
 H         2.264087         0.893378        -2.126868
 H         1.856653         2.086710        -0.756910
 H         4.615483         2.172509         0.028552
 H         2.389025         0.720928         2.014489
