19
Iteration:  4781charge 0 multiplicity 1
 C         4.245193        -1.829025         0.625953
 C         3.235774        -0.880498         0.417735
 O         2.054871        -1.251584        -0.372984
 C         1.345352         0.040551        -0.148306
 C        -0.191433        -0.096084        -0.151046
 C         2.197153         1.042891        -1.006193
 C         3.360530         0.611198        -0.082400
 O         4.583940         1.330991         0.052906
 C         2.560429         0.289162         1.101800
 H         4.198154        -2.264360         1.687928
 H         4.315094        -2.570763        -0.244456
 H         5.155411        -1.278916         0.726451
 H        -0.500241        -1.035194         0.197657
 H        -0.532001         0.607216         0.607964
 H        -0.726290         0.156154        -1.111351
 H         2.268359         0.983346        -2.118847
 H         1.788327         1.982466        -0.666982
 H         4.952265         1.091616        -0.786586
 H         2.554872         0.490046         2.204897
