19
Iteration:  2552charge 0 multiplicity 1
 C         4.135344        -1.853598         0.715435
 C         3.213163        -0.818084         0.414790
 O         2.172545        -1.298688        -0.621290
 C         1.400446         0.039431        -0.101818
 C        -0.071981        -0.068173        -0.014063
 C         2.217902         1.023246        -0.864344
 C         3.379261         0.687967        -0.020477
 O         4.595752         1.254534        -0.165431
 C         2.381938         0.289174         1.125265
 H         3.674753        -2.457091         1.578827
 H         4.188435        -2.608343        -0.114568
 H         5.089153        -1.526215         0.990616
 H        -0.447927        -0.818881         0.751498
 H        -0.583514         0.824895         0.224123
 H        -0.593452        -0.306018        -0.914995
 H         2.244638         0.682555        -1.958043
 H         2.243151         2.148322        -0.942608
 H         4.608658         2.152317         0.219981
 H         2.149656         0.580420         2.143807
