19
Iteration:  2157charge 0 multiplicity 1
 C         4.342679        -1.746503         0.624860
 C         3.219048        -0.860108         0.327906
 O         2.020270        -1.306139        -0.350937
 C         1.367853        -0.036724        -0.065075
 C        -0.115587         0.080120        -0.055447
 C         2.309263         0.999915        -1.101925
 C         3.328661         0.604251        -0.110075
 O         4.581496         1.194953         0.053007
 C         2.359762         0.249015         1.066457
 H         4.218071        -2.581201         1.217055
 H         4.613477        -2.192944        -0.325739
 H         5.227805        -1.106098         0.783484
 H        -0.573298        -0.448691         0.756618
 H        -0.420116         1.111682         0.149128
 H        -0.681186        -0.203154        -0.995904
 H         2.360016         0.784891        -2.118088
 H         1.865745         1.978681        -0.910005
 H         4.408046         2.113262         0.312108
 H         2.344185         0.398677         2.120586
