19
Iteration:  3437
 C         4.186080        -1.784914         0.732923
 C         3.131557        -0.935767         0.379304
 O         2.047811        -1.349439        -0.439753
 C         1.403661         0.101710        -0.151246
 C        -0.039582        -0.024331         0.037152
 C         2.297341         1.029274        -1.066886
 C         3.415189         0.679309        -0.131109
 O         4.602045         1.286278        -0.020199
 C         2.386870         0.198353         0.997425
 H         3.719254        -2.568392         1.461601
 H         4.854224        -2.241375        -0.057924
 H         4.863505        -1.198518         1.311153
 H        -0.432166        -0.660284         0.794184
 H        -0.365030         0.972355         0.233732
 H        -0.402003        -0.372224        -0.944500
 H         2.382846         0.835545        -2.193138
 H         1.805491         2.018654        -0.737261
 H         4.234747         2.179416         0.283149
 H         2.302717         0.441379         2.089057
