19
Iteration:  2204charge 0 multiplicity 1
 C         4.182688        -1.776386         0.726730
 C         3.248214        -0.789155         0.309145
 O         2.049159        -1.314400        -0.469383
 C         1.346006         0.108195        -0.116748
 C        -0.094787        -0.050556         0.036615
 C         2.241814         1.001634        -1.060999
 C         3.374632         0.636623        -0.120081
 O         4.596165         1.221329         0.015906
 C         2.471672         0.229363         1.024702
 H         3.701565        -2.456985         1.502112
 H         4.512854        -2.474396        -0.079706
 H         5.161403        -1.349054         1.073178
 H        -0.455713        -0.894573         0.792929
 H        -0.601921         0.864053         0.264996
 H        -0.346248        -0.293909        -0.964670
 H         2.202914         0.778603        -2.140113
 H         2.125604         2.119805        -0.870383
 H         4.518682         2.134740         0.429539
 H         2.346010         0.308111         2.107910
