19
Iteration:  4662
 C         4.142589        -1.918080         0.734616
 C         3.242878        -0.781448         0.251272
 O         2.043355        -1.212972        -0.415339
 C         1.412333         0.060947        -0.061758
 C        -0.153690        -0.188704        -0.052506
 C         2.122823         1.037175        -0.969814
 C         3.438767         0.733104        -0.066024
 O         4.653392         1.351191        -0.024279
 C         2.474896         0.284682         1.025841
 H         3.596428        -2.790922         1.103419
 H         4.931539        -2.215300        -0.016133
 H         4.672979        -1.625361         1.597298
 H        -0.386277        -0.822338         0.779009
 H        -0.835731         0.671114         0.005896
 H        -0.526067        -0.746804        -1.002791
 H         2.306648         0.718037        -2.057312
 H         1.762760         2.074437        -0.907638
 H         5.382442         0.842129        -0.493053
 H         2.512356         0.533464         2.145193
