19
Iteration:  4376charge 0 multiplicity 1
 C         4.284085        -1.746980         0.626466
 C         3.180980        -0.855288         0.346257
 O         1.998891        -1.347170        -0.391283
 C         1.418622         0.008517        -0.141781
 C        -0.105157         0.002708        -0.143910
 C         2.201949         0.858247        -0.966013
 C         3.398732         0.611565        -0.083254
 O         4.623726         1.335639         0.006809
 C         2.443276         0.328836         1.111772
 H         4.215060        -2.387010         1.595949
 H         4.227618        -2.474231        -0.254882
 H         5.241273        -1.135099         0.742432
 H        -0.436179        -0.934412         0.489562
 H        -0.651766         0.902238         0.263130
 H        -0.495511        -0.060391        -1.153597
 H         2.186380         0.708261        -2.032257
 H         1.993879         1.930038        -0.777129
 H         4.324264         2.116146         0.522017
 H         2.297949         0.589135         2.219011
