19
Iteration:  3084
 C         4.190270        -1.927413         0.820309
 C         3.219945        -0.780980         0.353933
 O         2.139777        -1.220957        -0.514960
 C         1.501246        -0.000561        -0.139666
 C        -0.100186        -0.004747        -0.025263
 C         2.180185         1.048880        -1.003579
 C         3.359592         0.700971        -0.072707
 O         4.580560         1.216732        -0.144076
 C         2.371061         0.229560         1.100840
 H         3.490452        -2.635498         1.226748
 H         4.683876        -2.424645        -0.003606
 H         4.847998        -1.566959         1.642145
 H        -0.192693        -0.890792         0.634978
 H        -0.473652         0.785047         0.503611
 H        -0.657213        -0.475337        -0.904724
 H         2.114713         0.824809        -1.997834
 H         1.938145         2.050242        -0.760083
 H         4.538823         2.197336         0.060604
 H         2.257451         0.582114         2.182529
