19
Iteration:  3378
 C         4.296751        -1.732457         0.578277
 C         3.141514        -0.764705         0.434062
 O         1.959513        -1.295430        -0.302148
 C         1.440212         0.040387        -0.152695
 C        -0.083232        -0.072350        -0.192409
 C         2.281796         1.009746        -0.936610
 C         3.346058         0.631828        -0.029169
 O         4.641583         1.150097        -0.045529
 C         2.413860         0.271034         1.078726
 H         3.982132        -2.443993         1.286944
 H         4.391676        -2.223250        -0.378779
 H         5.231211        -1.216684         0.956274
 H        -0.434371        -0.419889         0.806224
 H        -0.563718         0.911321        -0.389491
 H        -0.412514        -0.714454        -1.030066
 H         2.429620         0.833275        -1.998950
 H         1.754322         1.979159        -0.801249
 H         4.530817         2.103880         0.133707
 H         2.162955         0.473420         2.080360
