19
Iteration:  3101
 C         4.072991        -1.893637         0.801210
 C         3.251574        -0.771229         0.327680
 O         2.158622        -1.312624        -0.501167
 C         1.368523         0.023688        -0.101333
 C        -0.088345        -0.086821         0.051452
 C         2.167083         0.977897        -1.037260
 C         3.402828         0.725990        -0.050403
 O         4.683224         1.307205        -0.083736
 C         2.402760         0.247131         1.046555
 H         3.495284        -2.798837         1.170389
 H         4.578631        -2.283579        -0.148063
 H         4.832821        -1.590426         1.485145
 H        -0.562739        -0.898422         0.609599
 H        -0.272381         1.067345         0.446345
 H        -0.551356         0.086691        -0.913970
 H         2.438911         0.703069        -2.162140
 H         1.654406         2.009834        -1.078508
 H         4.579109         2.315255        -0.100500
 H         2.150693         0.363049         2.051259
