19
Iteration:  4251charge 0 multiplicity 1
 C         4.308991        -1.777272         0.648762
 C         3.132946        -0.819731         0.450540
 O         2.054456        -1.370180        -0.390881
 C         1.441820        -0.013271        -0.159030
 C        -0.029508         0.060499        -0.066485
 C         2.238296         0.880071        -1.049962
 C         3.375858         0.633586        -0.033342
 O         4.520258         1.314235        -0.064596
 C         2.334512         0.293753         1.061254
 H         3.833802        -2.742122         0.712054
 H         4.833409        -1.708575        -0.308204
 H         5.019040        -1.414437         1.368414
 H        -0.289798        -0.771869         0.537707
 H        -0.234691         0.951416         0.472959
 H        -0.548010         0.092998        -1.062829
 H         2.412548         0.617962        -2.130517
 H         1.966714         1.925433        -0.972638
 H         4.618726         1.685856         0.810240
 H         2.284835         0.726852         2.096282
