19
Iteration:    32
 C         4.305508        -1.718168         0.548188
 C         3.146419        -0.781080         0.303586
 O         2.039460        -1.263398        -0.439155
 C         1.340315        -0.002681        -0.060264
 C        -0.144346        -0.092932        -0.185785
 C         2.202046         1.081818        -0.885138
 C         3.353629         0.723615         0.028582
 O         4.692865         1.140513         0.078378
 C         2.393387         0.217460         1.142295
 H         4.241216        -2.547390         1.197779
 H         4.457971        -2.052864        -0.498359
 H         5.096045        -1.128385         0.900984
 H        -0.519539        -0.925271         0.423791
 H        -0.545519         0.901919         0.144433
 H        -0.425161        -0.289594        -1.161152
 H         2.343445         0.682388        -1.891582
 H         1.797617         2.080192        -0.958997
 H         5.011504         1.345830        -0.839478
 H         2.391385         0.328790         2.229440
