19
Iteration:  3515
 C         4.296841        -1.762937         0.753869
 C         3.170623        -0.795921         0.385832
 O         1.968598        -1.289787        -0.326234
 C         1.370645        -0.025061        -0.136640
 C        -0.149464        -0.062499        -0.124142
 C         2.278237         1.065624        -1.005198
 C         3.361904         0.649588        -0.148135
 O         4.645623         1.211758        -0.055675
 C         2.472907         0.238676         1.035187
 H         3.968503        -2.728834         1.270854
 H         4.737481        -2.034259        -0.239995
 H         5.197646        -1.304682         1.157666
 H        -0.480298        -0.900444         0.434141
 H        -0.674035         0.806054         0.293282
 H        -0.444743        -0.089621        -1.138803
 H         2.330667         0.868822        -2.119449
 H         2.000391         2.106653        -0.671544
 H         4.453013         2.011601         0.444648
 H         2.195403         0.384915         2.008834
