19
Iteration:  1531
 C         4.165144        -1.915348         0.720141
 C         3.180885        -0.852430         0.305124
 O         2.090930        -1.338842        -0.471907
 C         1.442459         0.043697        -0.150655
 C        -0.125501        -0.019353         0.020129
 C         2.252223         1.054547        -1.038893
 C         3.407041         0.725755        -0.058992
 O         4.563444         1.359078        -0.068537
 C         2.469649         0.218244         1.091946
 H         3.660571        -2.768308         1.252309
 H         4.494560        -2.519435        -0.042975
 H         4.933173        -1.526833         1.410458
 H        -0.310361        -0.928336         0.603489
 H        -0.298363         0.945003         0.420281
 H        -0.680891        -0.242887        -0.923384
 H         2.473237         0.852852        -2.131821
 H         1.891529         2.030194        -0.866463
 H         4.382368         2.134121         0.528493
 H         2.217553         0.207941         2.180158
