19
Iteration:  4641charge 0 multiplicity 1
 C         4.112749        -1.806107         0.765316
 C         3.157100        -0.809166         0.377170
 O         2.096715        -1.286808        -0.512831
 C         1.437459         0.063536        -0.073427
 C        -0.045804        -0.138275        -0.059078
 C         2.178971         1.062163        -0.882439
 C         3.407021         0.623478        -0.133999
 O         4.567383         1.381905        -0.162792
 C         2.463709         0.216460         1.146383
 H         3.587027        -2.670116         1.128636
 H         4.818531        -2.090912        -0.088148
 H         4.728417        -1.505433         1.568112
 H        -0.449369        -0.896269         0.559966
 H        -0.456159         0.845673         0.253648
 H        -0.287487        -0.341270        -1.198443
 H         2.307837         0.975270        -2.006767
 H         1.930879         2.083746        -0.572720
 H         5.134788         0.614794        -0.295849
 H         2.256116         0.493222         2.235415
