19
Iteration:  2926
 C         4.148110        -1.884055         0.815626
 C         3.194448        -0.825576         0.327799
 O         2.085139        -1.333770        -0.490129
 C         1.392910         0.013555        -0.166930
 C        -0.091599        -0.085368        -0.044277
 C         2.202484         1.108004        -0.946768
 C         3.367700         0.762064        -0.039566
 O         4.655241         1.279193        -0.134948
 C         2.410028         0.192323         1.005397
 H         3.693496        -2.710089         1.409012
 H         4.796752        -2.237544        -0.016922
 H         5.021014        -1.338785         1.359178
 H        -0.312387        -0.878189         0.743913
 H        -0.544256         0.872350         0.549655
 H        -0.654969        -0.177062        -0.955431
 H         2.311102         1.014436        -2.058910
 H         1.702501         1.989487        -0.551010
 H         4.818747         2.017531         0.469075
 H         2.565892         0.511874         2.080870
