19
Iteration:  2300
 C         4.312549        -1.674463         0.600200
 C         3.158697        -0.839563         0.297207
 O         2.007354        -1.362389        -0.342070
 C         1.386228         0.047399        -0.156644
 C        -0.106065         0.039222        -0.062888
 C         2.172827         1.015234        -1.014349
 C         3.396246         0.575106        -0.084372
 O         4.647873         1.145002         0.039723
 C         2.402122         0.245236         1.062886
 H         3.991287        -2.551006         1.108738
 H         5.052497        -1.934038        -0.139380
 H         4.880004        -1.162828         1.415566
 H        -0.475786        -0.819459         0.619070
 H        -0.362426         1.033786         0.243612
 H        -0.474319        -0.168936        -1.160702
 H         1.986143         0.841634        -2.064505
 H         1.967789         2.053824        -0.695822
 H         4.610616         2.117631         0.184464
 H         2.399764         0.721738         2.080518
