19
Iteration:  4382charge 0 multiplicity 1
 C         4.327509        -1.779371         0.637067
 C         3.146951        -0.893793         0.315769
 O         2.030501        -1.290511        -0.309345
 C         1.365004        -0.009267        -0.131517
 C        -0.135009        -0.007942        -0.150315
 C         2.232118         0.899202        -1.006528
 C         3.433246         0.623142        -0.099624
 O         4.581342         1.319109         0.035597
 C         2.443183         0.333658         1.055247
 H         4.285337        -2.360980         1.498257
 H         4.434053        -2.401159        -0.224363
 H         5.264902        -1.259838         0.722747
 H        -0.533699        -0.800622         0.371013
 H        -0.592830         0.818917         0.379435
 H        -0.579498        -0.013577        -1.175073
 H         2.101086         0.665750        -2.106047
 H         1.910771         1.930954        -0.825561
 H         4.428743         2.029179         0.652134
 H         2.468173         0.509264         2.106509
