19
Iteration:  2852
 C         4.353410        -1.791006         0.614950
 C         3.139859        -0.787784         0.242770
 O         1.953585        -1.361413        -0.290715
 C         1.385839        -0.064539        -0.105039
 C        -0.050751         0.047569        -0.103346
 C         2.209483         1.006474        -1.030833
 C         3.272005         0.724013        -0.075080
 O         4.710353         1.220262         0.090941
 C         2.423056         0.243505         1.024494
 H         3.880305        -2.709790         0.953126
 H         4.833133        -2.066305        -0.338921
 H         5.206735        -1.389891         1.111254
 H        -0.442912        -0.561155         0.688255
 H        -0.550120         1.028217         0.053323
 H        -0.336343        -0.452369        -1.048679
 H         2.328201         0.730969        -2.046852
 H         1.740058         1.952753        -0.762337
 H         4.604148         2.218081         0.178366
 H         2.051375         0.528461         2.059084
