19
Iteration:  4542charge 0 multiplicity 1
 C         4.171776        -1.796328         0.529973
 C         3.077012        -0.805063         0.363349
 O         2.081416        -1.367786        -0.407932
 C         1.396977         0.006803        -0.101064
 C        -0.100973        -0.053957        -0.037526
 C         2.236315         0.881472        -1.028579
 C         3.473086         0.638007        -0.031882
 O         4.587549         1.445634         0.062365
 C         2.412093         0.334820         1.068541
 H         4.076029        -2.569266         1.328564
 H         4.394980        -2.236489        -0.468820
 H         5.044665        -1.293847         0.902731
 H        -0.237657        -0.683337         0.847485
 H        -0.290107         1.005028         0.132262
 H        -0.576586        -0.391611        -1.002121
 H         2.344423         0.704672        -2.122149
 H         1.854379         1.908409        -0.956843
 H         5.325784         0.844698         0.131894
 H         2.092685         0.569726         2.045464
