19
Iteration:  4423
 C         4.255207        -1.692480         0.618873
 C         3.164353        -0.827562         0.340213
 O         2.033012        -1.349134        -0.338706
 C         1.420001        -0.005197        -0.148796
 C        -0.051430        -0.007760        -0.058336
 C         2.195204         0.870409        -1.051973
 C         3.362205         0.660954        -0.090273
 O         4.627144         1.258358         0.056024
 C         2.378839         0.320914         0.982513
 H         3.966877        -2.584002         1.260201
 H         4.753708        -2.076506        -0.391977
 H         4.842382        -1.061154         1.262969
 H        -0.400527        -0.908472         0.495943
 H        -0.209696         0.872992         0.573453
 H        -0.570671         0.266399        -1.060976
 H         2.363017         0.526706        -2.086690
 H         1.744265         1.866121        -1.033318
 H         4.622410         1.871416         0.838118
 H         2.364415         0.408365         2.015308
