19
Iteration:  2435charge 0 multiplicity 1
 C         4.251269        -1.753296         0.694443
 C         3.152795        -0.795832         0.349402
 O         1.987724        -1.334466        -0.423813
 C         1.354900         0.009815        -0.140293
 C        -0.058860        -0.002793        -0.052136
 C         2.211584         1.038540        -1.005165
 C         3.416041         0.633162        -0.048682
 O         4.722038         1.230845        -0.091109
 C         2.351241         0.184955         1.121001
 H         3.836703        -2.659079         1.203008
 H         4.681485        -2.114536        -0.260458
 H         5.005747        -1.294131         1.296249
 H        -0.382034        -0.901832         0.646306
 H        -0.569515         0.936046         0.350760
 H        -0.417336        -0.194343        -1.041164
 H         2.361340         0.998815        -2.060387
 H         1.879308         2.059548        -0.784944
 H         4.488382         2.165767         0.168198
 H         2.345772         0.445819         2.153113
