19
Iteration:  3923
 C         4.280272        -1.696930         0.627611
 C         3.198860        -0.855589         0.318190
 O         1.996635        -1.311564        -0.393184
 C         1.425388         0.002993        -0.090214
 C        -0.150044         0.041922        -0.019494
 C         2.291733         0.849227        -1.122913
 C         3.358111         0.640634        -0.047768
 O         4.604816         1.296585         0.054820
 C         2.433375         0.264322         1.068939
 H         3.942744        -2.559755         1.214989
 H         4.634390        -2.129158        -0.318549
 H         5.026211        -1.088953         1.027943
 H        -0.426377        -0.651212         0.803310
 H        -0.641441         0.989517        -0.156019
 H        -0.554902        -0.549975        -0.860569
 H         2.386972         0.409936        -2.100859
 H         1.998846         1.860497        -1.279178
 H         4.361075         2.106046         0.514464
 H         2.330229         0.458051         2.217739
