19
Iteration:  1578charge 0 multiplicity 1
 C         4.257438        -1.797036         0.607948
 C         3.191574        -0.794445         0.278552
 O         2.058903        -1.282535        -0.346780
 C         1.399725         0.020801        -0.141800
 C        -0.190383        -0.028606        -0.025991
 C         2.216428         1.041573        -1.037163
 C         3.373083         0.721787        -0.078300
 O         4.610110         1.196314         0.103568
 C         2.465232         0.219103         1.032163
 H         3.985653        -2.614430         1.367143
 H         4.330523        -2.630364        -0.186697
 H         5.177062        -1.241392         0.834491
 H        -0.548113        -0.711745         0.715529
 H        -0.553748         0.924499        -0.195935
 H        -0.428034        -0.671288        -0.923159
 H         2.302698         0.656068        -2.064626
 H         2.005753         2.101054        -0.909875
 H         4.575975         2.146446        -0.010889
 H         2.622245         0.389281         2.105906
