19
Iteration:   624
 C         4.236310        -1.730550         0.633041
 C         3.184795        -0.861836         0.213158
 O         2.008288        -1.293603        -0.589539
 C         1.383079        -0.004257        -0.101967
 C        -0.115487        -0.052759        -0.047654
 C         2.285522         1.044165        -0.898135
 C         3.349082         0.728158         0.069050
 O         4.593391         1.227958        -0.015478
 C         2.459487         0.222087         1.141879
 H         3.845241        -2.403420         1.477977
 H         4.644351        -2.363314        -0.221954
 H         5.130222        -1.192437         0.986105
 H        -0.380448        -0.575496         0.929861
 H        -0.519806         0.972210        -0.039998
 H        -0.412106        -0.774949        -0.809735
 H         2.526044         0.730294        -1.938351
 H         1.736197         2.036410        -1.004849
 H         4.774607         2.030977         0.488781
 H         2.364085         0.016047         2.150939
