19
Iteration:  2074
 C         4.179037        -1.856744         0.763322
 C         3.139877        -0.825241         0.388580
 O         2.062569        -1.254660        -0.512982
 C         1.422423         0.053639        -0.101643
 C        -0.046289        -0.107071         0.014188
 C         2.185525         1.117199        -1.028423
 C         3.352567         0.687874        -0.093471
 O         4.686143         1.225439        -0.109718
 C         2.412060         0.216280         1.091620
 H         3.696026        -2.645597         1.363947
 H         4.668882        -2.106444        -0.172892
 H         4.848526        -1.453678         1.542748
 H        -0.288774        -1.058724         0.643150
 H        -0.379883         0.828263         0.372499
 H        -0.372813        -0.266233        -0.968779
 H         2.113135         0.721868        -2.064594
 H         2.028506         2.180525        -0.741405
 H         4.687949         2.178770        -0.000927
 H         2.012409         0.223326         2.030189
