19
Iteration:   776
 C         4.350930        -1.704098         0.575889
 C         3.150245        -0.857555         0.291403
 O         1.925878        -1.178521        -0.511222
 C         1.340738         0.024884        -0.105630
 C        -0.128969        -0.122473        -0.075183
 C         2.192280         1.010995        -1.034211
 C         3.355073         0.646685        -0.040988
 O         4.643963         1.210807         0.187166
 C         2.580328         0.161304         1.134970
 H         4.137412        -2.537174         1.317042
 H         4.406126        -2.359267        -0.338985
 H         5.249378        -1.108094         0.634839
 H        -0.402879        -0.440313         0.965868
 H        -0.555392         0.841974        -0.372780
 H        -0.477512        -0.667281        -0.931981
 H         2.171508         0.566467        -2.023343
 H         1.813072         2.079055        -1.112515
 H         4.510306         2.171407         0.387268
 H         2.672576         0.582738         2.168956
