19
Iteration:  2119charge 0 multiplicity 1
 C         4.343620        -1.817703         0.647786
 C         3.134280        -0.816529         0.291713
 O         1.995214        -1.319997        -0.330311
 C         1.379945         0.037254        -0.025507
 C        -0.159791         0.022325        -0.120453
 C         2.163504         1.059418        -1.054046
 C         3.415940         0.684682        -0.090895
 O         4.704555         1.201294        -0.006475
 C         2.415362         0.216132         1.072423
 H         4.033607        -2.617606         1.395753
 H         4.749861        -2.098198        -0.342062
 H         5.037271        -1.226900         1.237154
 H        -0.597868        -0.823170         0.547104
 H        -0.522778         1.037872         0.069760
 H        -0.312653        -0.363216        -1.113506
 H         2.325677         0.625967        -2.105709
 H         1.610119         2.024851        -0.879944
 H         4.501831         2.099386         0.230825
 H         2.397892         0.176113         2.157705
