19
Iteration:  3874charge 0 multiplicity 1
 C         4.263337        -1.665211         0.730706
 C         3.198972        -0.840246         0.317757
 O         2.118784        -1.367823        -0.382796
 C         1.386976        -0.034938        -0.116280
 C        -0.164406        -0.025292        -0.107069
 C         2.162923         0.981221        -0.940398
 C         3.344825         0.647888        -0.141152
 O         4.636818         1.146779        -0.054693
 C         2.437319         0.321381         1.051916
 H         3.768391        -2.564672         1.134226
 H         4.953810        -1.905134        -0.104885
 H         4.897889        -1.005237         1.457955
 H        -0.596365        -0.892908         0.364634
 H        -0.376463         0.994977         0.371578
 H        -0.679203         0.251591        -1.063111
 H         2.253823         0.967988        -2.068068
 H         1.841418         2.051796        -0.730340
 H         4.517308         2.024278         0.414491
 H         2.505788         0.546134         2.131804
