19
Iteration:  2398charge 0 multiplicity 1
 C         4.141953        -1.842284         0.737151
 C         3.253948        -0.800613         0.238120
 O         1.983701        -1.235389        -0.445083
 C         1.432946        -0.045340        -0.067273
 C        -0.108073        -0.035217        -0.075688
 C         2.118044         1.026415        -0.980228
 C         3.390465         0.620418        -0.149298
 O         4.684186         1.314633         0.037804
 C         2.503560         0.185906         1.105557
 H         3.628034        -2.214602         1.596752
 H         4.399057        -2.636741         0.048461
 H         5.116002        -1.516701         1.121256
 H        -0.456070        -0.827037         0.516795
 H        -0.505384         0.889783         0.152672
 H        -0.385570        -0.357936        -1.122951
 H         1.918366         0.789124        -2.064687
 H         1.936390         2.067877        -0.601193
 H         4.590264         2.210656        -0.396551
 H         3.011526         0.580929         2.024966
