19
Iteration:  3516
 C         4.290665        -1.773952         0.747424
 C         3.178601        -0.783238         0.384205
 O         1.969437        -1.294852        -0.320455
 C         1.365637        -0.012724        -0.134612
 C        -0.153879        -0.068797        -0.131421
 C         2.284749         1.067576        -1.006768
 C         3.367102         0.647209        -0.138906
 O         4.639610         1.208859        -0.060774
 C         2.472084         0.229920         1.036371
 H         4.016545        -2.725761         1.281812
 H         4.745126        -2.014553        -0.235867
 H         5.197851        -1.261194         1.158696
 H        -0.482908        -0.894058         0.445275
 H        -0.687346         0.821779         0.278681
 H        -0.451439        -0.095941        -1.101548
 H         2.335329         0.895470        -2.117735
 H         2.013012         2.107982        -0.700079
 H         4.476698         2.030484         0.455359
 H         2.164374         0.400003         2.017632
