19
Iteration:   566
 C         4.374603        -1.786826         0.422900
 C         3.191274        -0.783965         0.374823
 O         2.037875        -1.318795        -0.345633
 C         1.388101        -0.052807        -0.155741
 C        -0.088891         0.067269        -0.124445
 C         2.202240         0.964303        -1.039978
 C         3.326334         0.668510         0.010890
 O         4.585017         1.223662         0.112914
 C         2.384129         0.203304         1.153025
 H         4.085697        -2.626691         1.007396
 H         4.538486        -2.135732        -0.671747
 H         5.283832        -1.251176         0.877914
 H        -0.460579        -0.559928         0.647925
 H        -0.371865         1.081037         0.014063
 H        -0.616527        -0.210654        -1.049384
 H         2.411777         0.673180        -2.074417
 H         1.713570         1.954849        -0.959044
 H         4.606720         2.134613         0.505790
 H         2.240110         0.662078         2.194552
