19
Iteration:  3071charge 0 multiplicity 1
 C         4.178731        -1.810441         0.830825
 C         3.208067        -0.835769         0.331855
 O         2.005572        -1.272462        -0.525234
 C         1.363260         0.048366        -0.160469
 C        -0.033087        -0.134568        -0.048162
 C         2.219790         1.098203        -0.949331
 C         3.372355         0.603516        -0.066800
 O         4.630677         1.232610        -0.136388
 C         2.462134         0.250624         1.120347
 H         3.684563        -2.666450         1.344214
 H         4.816444        -2.150714        -0.031134
 H         4.920036        -1.434985         1.480844
 H        -0.343947        -0.736978         0.755696
 H        -0.409467         0.887608         0.160002
 H        -0.521152        -0.247891        -0.963974
 H         2.366234         1.002161        -2.004081
 H         1.869526         2.096966        -0.677088
 H         4.493744         2.141655         0.148115
 H         2.421171         0.665961         2.122085
