19
Iteration:    63
 C         4.390626        -1.828463         0.551324
 C         3.146684        -0.920413         0.294803
 O         1.929776        -1.315744        -0.371915
 C         1.373114         0.064853        -0.108306
 C        -0.053592        -0.032449        -0.183733
 C         2.232291         1.092838        -0.860897
 C         3.379447         0.592846        -0.055275
 O         4.538761         1.312733         0.131705
 C         2.393230         0.234366         1.055399
 H         4.320032        -2.678713         1.189252
 H         4.917053        -2.125174        -0.439106
 H         5.156887        -1.125759         0.810995
 H        -0.366176        -0.742446         0.612762
 H        -0.567244         0.928010         0.226495
 H        -0.336134        -0.228699        -1.178045
 H         2.248214         0.928207        -1.961147
 H         1.994112         2.110608        -0.583564
 H         5.067373         1.234311        -0.658858
 H         2.446179         0.867071         1.975456
