19
Iteration:  3392
 C         4.226490        -1.748997         0.643598
 C         3.143384        -0.806375         0.338692
 O         2.045482        -1.340411        -0.331095
 C         1.345496        -0.014214        -0.011413
 C        -0.120428        -0.034526        -0.192243
 C         2.150828         1.061770        -1.080239
 C         3.417824         0.692453        -0.090406
 O         4.719453         1.186237        -0.006748
 C         2.409983         0.285135         1.147989
 H         3.954789        -2.595775         1.337459
 H         4.496876        -2.160187        -0.381795
 H         5.195953        -1.351482         0.881566
 H        -0.679801        -0.429095         0.658181
 H        -0.534800         0.865822        -0.403558
 H        -0.267414        -0.831652        -0.984710
 H         2.221383         0.616623        -2.103279
 H         2.046996         2.171331        -0.943990
 H         4.762019         2.072758         0.447530
 H         2.413935         0.447957         2.289892
