19
Iteration:  1954charge 0 multiplicity 1
 C         4.395157        -1.785966         0.553927
 C         3.207695        -0.821549         0.323699
 O         1.940553        -1.317929        -0.320446
 C         1.358637         0.001251        -0.035586
 C        -0.149825         0.001587        -0.142969
 C         2.231060         1.065812        -1.064093
 C         3.278825         0.694053        -0.114174
 O         4.597382         1.150082         0.092640
 C         2.502253         0.296640         1.108994
 H         4.093967        -2.619137         1.259836
 H         4.655660        -2.332207        -0.364522
 H         5.298339        -1.384229         1.001373
 H        -0.662347        -0.944834         0.453471
 H        -0.657042         0.952787        -0.024233
 H        -0.307638        -0.422064        -1.116590
 H         2.370611         0.601900        -2.063994
 H         2.005210         2.143976        -0.898374
 H         4.706008         2.127505         0.264257
 H         2.728741         0.702058         2.042998
