19
Iteration:  2548
 C         4.170236        -1.884567         0.725954
 C         3.176648        -0.794207         0.409433
 O         2.168632        -1.276201        -0.631739
 C         1.427210         0.027349        -0.072678
 C        -0.078186        -0.068503        -0.036682
 C         2.217586         1.022333        -0.910029
 C         3.365634         0.659223         0.019213
 O         4.591084         1.255101        -0.167774
 C         2.382707         0.309428         1.134550
 H         3.693656        -2.518571         1.440062
 H         4.252639        -2.583924        -0.097034
 H         5.213826        -1.539628         1.023428
 H        -0.279433        -0.665249         0.801206
 H        -0.481957         0.940828         0.265716
 H        -0.714547        -0.325452        -1.000992
 H         2.135431         0.571575        -1.866935
 H         2.107354         2.066428        -0.896330
 H         4.602850         2.182301         0.174165
 H         2.111287         0.522163         2.159973
