19
Iteration:   637charge 0 multiplicity 1
 C         4.182437        -1.813891         0.667445
 C         3.168122        -0.752832         0.244643
 O         2.178189        -1.219109        -0.563759
 C         1.413938        -0.024955        -0.121290
 C        -0.190013        -0.137325         0.027053
 C         2.269727         1.112550        -0.913415
 C         3.366060         0.702659         0.024808
 O         4.647066         1.218062        -0.087742
 C         2.354892         0.138922         1.087495
 H         3.734225        -2.555419         1.439407
 H         4.542118        -2.408525        -0.148290
 H         4.931893        -1.254725         1.168619
 H        -0.511596        -0.721295         0.956841
 H        -0.693069         0.916173         0.118003
 H        -0.711215        -0.463368        -0.878005
 H         2.476654         0.830272        -1.982891
 H         2.051088         2.187700        -0.655551
 H         4.687506         1.997549         0.513373
 H         2.245118         0.351083         2.137337
