19
Iteration:   649charge 0 multiplicity 1
 C         4.188087        -1.835649         0.741035
 C         3.264330        -0.796777         0.363914
 O         2.120114        -1.200291        -0.602990
 C         1.330455         0.048798        -0.162657
 C        -0.099973        -0.152022         0.022469
 C         2.137749         1.113487        -0.939670
 C         3.414743         0.657604        -0.072434
 O         4.724915         1.243996        -0.061769
 C         2.310429         0.127982         1.093623
 H         3.565977        -2.612358         1.295577
 H         4.508233        -2.222239        -0.184833
 H         5.082864        -1.628052         1.261112
 H        -0.304914        -0.968326         0.789659
 H        -0.425477         0.880120         0.464144
 H        -0.564158        -0.494817        -0.914427
 H         2.163584         1.244275        -2.070913
 H         1.797504         2.112189        -0.598840
 H         4.726046         2.112709         0.342181
 H         2.119683         0.480869         2.143605
