19
Iteration:  2532charge 0 multiplicity 1
 C         4.220285        -1.894616         0.722868
 C         3.205440        -0.842400         0.327631
 O         2.079685        -1.187200        -0.453802
 C         1.405103         0.008594        -0.142667
 C        -0.044038        -0.004821        -0.008509
 C         2.191877         0.968437        -1.018384
 C         3.362914         0.707389        -0.034252
 O         4.627208         1.250964        -0.091932
 C         2.361324         0.189131         1.124925
 H         3.854102        -2.710576         1.413390
 H         4.594737        -2.333937        -0.235441
 H         5.050609        -1.412428         1.190156
 H        -0.537580        -0.683817         0.786242
 H        -0.454393         1.026662         0.078926
 H        -0.392973        -0.375878        -0.921885
 H         2.449612         0.888601        -2.112001
 H         1.654397         2.003809        -0.879664
 H         4.475210         2.242114        -0.006037
 H         2.296450         0.319262         2.214037
