19
Iteration:  3259
 C         4.146003        -1.887267         0.796181
 C         3.170410        -0.796947         0.222093
 O         2.043690        -1.318179        -0.434752
 C         1.419356        -0.003888        -0.141363
 C        -0.065093        -0.048693        -0.005342
 C         2.246988         0.981283        -1.074523
 C         3.380628         0.723719        -0.025719
 O         4.653815         1.301919        -0.082627
 C         2.416768         0.307159         1.109075
 H         3.576394        -2.655060         1.347944
 H         4.597263        -2.334712        -0.104951
 H         4.962687        -1.492948         1.533968
 H        -0.249741        -0.875500         0.693469
 H        -0.447021         0.816193         0.320744
 H        -0.347139        -0.168180        -1.086679
 H         2.416225         0.782408        -2.167235
 H         1.528858         1.881778        -0.959202
 H         4.488619         2.167174         0.423442
 H         2.468194         0.401154         2.162976
