19
Iteration:  1055charge 0 multiplicity 1
 C         4.273073        -1.771915         0.621933
 C         3.226111        -0.806539         0.231562
 O         2.100845        -1.306156        -0.454406
 C         1.339545         0.012637        -0.098302
 C        -0.157231        -0.007514        -0.004219
 C         2.170438         1.033911        -1.055168
 C         3.360822         0.689360        -0.135717
 O         4.702952         1.195773         0.147787
 C         2.365483         0.206974         1.084570
 H         3.695814        -2.547217         1.049687
 H         4.911352        -2.116690        -0.276351
 H         5.051501        -1.282484         1.256255
 H        -0.426542        -0.793132         0.727700
 H        -0.611664         0.845689         0.340609
 H        -0.488767        -0.209586        -1.047787
 H         2.144347         0.770671        -2.137298
 H         1.753719         2.010342        -1.018418
 H         4.514439         2.096625         0.455782
 H         2.393303         0.270408         2.277976
