19
Iteration:  3063
 C         4.197584        -1.765062         0.784642
 C         3.084759        -0.876166         0.299868
 O         1.996203        -1.272927        -0.453117
 C         1.390425         0.034793        -0.146568
 C        -0.089914        -0.104795        -0.024626
 C         2.237509         1.066596        -0.910189
 C         3.393016         0.642416        -0.090230
 O         4.682299         1.241771        -0.103856
 C         2.476780         0.228783         1.010535
 H         3.806285        -2.571499         1.374596
 H         4.842139        -2.150496         0.013305
 H         4.816168        -1.120806         1.479694
 H        -0.558087        -0.832407         0.688347
 H        -0.561940         0.816937         0.102081
 H        -0.241988        -0.493292        -1.139045
 H         2.399730         1.000602        -1.959257
 H         2.019244         2.064643        -0.571940
 H         4.589862         2.180623         0.173503
 H         2.481314         0.445956         2.118939
