19
Iteration:  3799
 C         4.195829        -1.937903         0.761527
 C         3.205601        -0.873059         0.387342
 O         2.122591        -1.324000        -0.423943
 C         1.448249        -0.032891        -0.182576
 C        -0.065989        -0.065697        -0.002469
 C         2.141882         1.040098        -1.088809
 C         3.324940         0.779789        -0.086780
 O         4.631310         1.312555        -0.042642
 C         2.408789         0.302477         1.082118
 H         3.783267        -2.666656         1.430004
 H         4.474108        -2.439740        -0.160210
 H         5.178672        -1.433410         1.032397
 H        -0.505132        -0.541690         0.923015
 H        -0.460386         1.046678        -0.011592
 H        -0.478720        -0.338512        -0.993131
 H         2.187689         0.646599        -2.089599
 H         1.648232         2.006458        -0.956339
 H         4.681487         2.248874         0.171729
 H         2.254372         0.662620         2.131700
