19
Iteration:  1450
 C         4.325947        -1.713303         0.568190
 C         3.057123        -0.805591         0.423436
 O         2.074540        -1.287674        -0.463428
 C         1.375669         0.002015        -0.121221
 C        -0.065254        -0.021595        -0.089764
 C         2.210919         0.993703        -0.960496
 C         3.371320         0.685197         0.049945
 O         4.737727         1.123695        -0.023467
 C         2.239791         0.231627         1.076925
 H         4.104086        -2.619007         1.072077
 H         4.634590        -1.703837        -0.485960
 H         5.173522        -1.207229         0.999103
 H        -0.293052        -0.680777         0.803944
 H        -0.542156         0.925656         0.433655
 H        -0.596303        -0.292004        -1.043307
 H         2.349488         0.740065        -2.008238
 H         1.915158         2.120804        -0.950458
 H         4.751111         2.115878        -0.121294
 H         2.054048         0.315415         2.187330
