19
Iteration:  4401charge 0 multiplicity 1
 C         4.394607        -1.784282         0.636624
 C         3.308425        -0.823183         0.343760
 O         1.923123        -1.391612        -0.281830
 C         1.403642        -0.018285        -0.095019
 C        -0.150823         0.002965        -0.093832
 C         2.199048         1.013324        -1.161675
 C         3.296944         0.704578        -0.179031
 O         4.591614         1.267368         0.094305
 C         2.471885         0.258613         1.075290
 H         4.059907        -2.480633         1.469973
 H         4.560150        -2.397781        -0.367840
 H         5.235941        -1.285163         1.090903
 H        -0.589271        -0.944594         0.286973
 H        -0.684703         0.816535         0.424230
 H        -0.404392         0.213709        -1.221421
 H         2.456351         0.724845        -2.196762
 H         1.973263         2.079215        -1.180017
 H         4.423921         1.714701         0.916587
 H         2.377817         0.861717         1.927673
