19
Iteration:  4389
 C         4.364810        -1.811535         0.634217
 C         3.186497        -0.843359         0.349187
 O         2.014326        -1.286766        -0.261087
 C         1.343855        -0.005684        -0.081454
 C        -0.173384        -0.014877        -0.150612
 C         2.237468         0.982886        -1.088264
 C         3.390481         0.609287        -0.110385
 O         4.564097         1.303025         0.063435
 C         2.460386         0.285287         0.979379
 H         4.176934        -2.497664         1.548553
 H         4.707215        -2.497001        -0.276285
 H         5.266945        -1.190008         0.697966
 H        -0.646730        -0.964154         0.318216
 H        -0.395184         0.881538         0.446867
 H        -0.563494         0.039052        -1.225891
 H         2.271707         0.627980        -2.119535
 H         1.815161         1.986905        -0.957818
 H         4.544797         1.952957         0.790031
 H         2.574592         0.540663         2.018033
