19
Iteration:  4300
 C         4.259310        -1.739922         0.769902
 C         3.164828        -0.860628         0.224857
 O         1.933352        -1.287569        -0.408335
 C         1.449098         0.047190        -0.150271
 C        -0.087515        -0.111733        -0.070630
 C         2.193127         1.076164        -1.010462
 C         3.408726         0.647324        -0.092933
 O         4.618626         1.229249        -0.018031
 C         2.518363         0.261400         1.059006
 H         3.723300        -2.627409         1.237727
 H         4.990416        -2.160250         0.035187
 H         4.736896        -1.033715         1.511503
 H        -0.238778        -0.692722         0.908716
 H        -0.727861         0.789412        -0.281383
 H        -0.376680        -0.882392        -0.779210
 H         2.110849         0.878215        -2.076222
 H         1.850830         2.108020        -0.773737
 H         4.467633         2.004297         0.564105
 H         2.493240         0.277058         2.171643
