19
Iteration:  3376
 C         4.299449        -1.746649         0.578534
 C         3.131815        -0.765711         0.422681
 O         1.958581        -1.290110        -0.300288
 C         1.443480         0.043311        -0.176343
 C        -0.073970        -0.078825        -0.184753
 C         2.292760         1.000154        -0.935436
 C         3.348849         0.639777        -0.027506
 O         4.627857         1.147821        -0.046535
 C         2.397231         0.273820         1.092929
 H         4.027348        -2.445662         1.332754
 H         4.501507        -2.206835        -0.387994
 H         5.225225        -1.204828         0.904654
 H        -0.479184        -0.408219         0.807816
 H        -0.611512         0.973579        -0.366203
 H        -0.380665        -0.688644        -1.014709
 H         2.447544         0.800821        -1.986139
 H         1.784950         1.937785        -0.687885
 H         4.582120         2.146888         0.093191
 H         2.175835         0.539351         2.075996
