19
Iteration:  4896
 C         4.392763        -1.787814         0.544451
 C         3.156685        -0.837915         0.295910
 O         2.001170        -1.345410        -0.447303
 C         1.349068        -0.062193        -0.072131
 C        -0.116327         0.098873        -0.005886
 C         2.250899         0.965563        -1.071542
 C         3.335217         0.657747        -0.063373
 O         4.588583         1.323712         0.162970
 C         2.387818         0.223105         1.060033
 H         4.013485        -2.683984         1.005147
 H         5.210289        -1.791599        -0.216000
 H         4.846911        -1.185384         1.447164
 H        -0.403158        -0.123797         1.111330
 H        -0.218786         1.196120        -0.213250
 H        -0.539407        -0.422672        -0.804452
 H         2.169179         0.542914        -2.123876
 H         1.917814         2.061297        -1.028869
 H         5.095642         0.996180        -0.579416
 H         2.123466         0.234031         2.166563
