19
Iteration:  3727
 C         4.303488        -1.670140         0.668354
 C         3.191314        -0.770473         0.333536
 O         2.079802        -1.297273        -0.365003
 C         1.350210        -0.060752        -0.147276
 C        -0.079762        -0.036642        -0.085698
 C         2.231699         0.996519        -1.030568
 C         3.313166         0.651952        -0.049663
 O         4.587091         1.132906        -0.042419
 C         2.368558         0.241897         1.114649
 H         3.915955        -2.471861         1.352043
 H         4.711728        -2.164022        -0.243693
 H         5.150737        -1.136641         1.090216
 H        -0.501916        -0.471470         0.834296
 H        -0.212195         1.010472        -0.002659
 H        -0.483908        -0.293822        -1.012274
 H         2.540821         0.882423        -2.113316
 H         1.906091         2.028528        -0.768626
 H         4.644659         2.075281         0.091473
 H         2.241896         0.496876         2.109999
