19
Iteration:  4674charge 0 multiplicity 1
 C         4.169893        -1.877738         0.713030
 C         3.167878        -0.846676         0.280527
 O         2.059620        -1.324914        -0.401575
 C         1.333337         0.087226        -0.088795
 C        -0.160514        -0.173106         0.023795
 C         2.219871         1.087070        -1.064270
 C         3.333064         0.761490        -0.140807
 O         4.667724         1.372319         0.075116
 C         2.589312         0.282582         1.048439
 H         3.541735        -2.695930         0.908647
 H         4.854636        -2.256418        -0.155667
 H         4.717487        -1.481223         1.517538
 H        -0.438707        -0.738296         0.844093
 H        -0.659907         0.815681        -0.096484
 H        -0.200669        -0.845886        -0.984223
 H         2.152763         0.720583        -2.177554
 H         1.879300         2.127263        -1.010473
 H         5.112096         0.812063        -0.562982
 H         2.303402         0.511909         2.143724
