19
Iteration:   439charge 0 multiplicity 1
 C         4.230513        -1.822638         0.576188
 C         3.123039        -0.926663         0.313622
 O         2.045933        -1.248871        -0.478682
 C         1.401612        -0.006208        -0.147492
 C        -0.039566        -0.044132        -0.004904
 C         2.232169         0.998583        -1.005029
 C         3.357147         0.620003        -0.030367
 O         4.621082         1.311612         0.094280
 C         2.404662         0.248258         1.061767
 H         4.081569        -2.661223         1.271746
 H         4.629447        -2.051832        -0.371325
 H         5.053125        -1.208448         0.950950
 H        -0.433153        -0.686653         0.819143
 H        -0.422512         0.949788         0.165241
 H        -0.448542        -0.530473        -0.981534
 H         2.333970         1.034321        -2.076988
 H         1.905494         2.044224        -0.771351
 H         4.458466         2.251761         0.326209
 H         2.385828         0.607298         2.111212
