19
Iteration:  3616charge 0 multiplicity 1
 C         4.221657        -1.744435         0.733081
 C         3.214806        -0.846159         0.291800
 O         2.105396        -1.373362        -0.441341
 C         1.451916         0.120900        -0.151726
 C        -0.126948         0.042655        -0.016811
 C         2.206653         0.980828        -1.070226
 C         3.372334         0.598619        -0.090732
 O         4.555997         1.295160        -0.001239
 C         2.437770         0.162568         1.075313
 H         3.800928        -2.378608         1.508850
 H         4.539065        -2.378966        -0.106691
 H         5.133102        -1.170845         1.252397
 H        -0.294079        -0.664743         0.821429
 H        -0.726181         0.972788         0.176758
 H        -0.646744        -0.362940        -0.774358
 H         2.260318         0.427432        -2.067071
 H         1.943880         2.033762        -1.281598
 H         4.555172         2.150679         0.539245
 H         2.249882         0.404965         2.215438
