19
Iteration:  2103
 C         4.238296        -1.761736         0.661237
 C         3.236341        -0.776762         0.340451
 O         1.997552        -1.260842        -0.425033
 C         1.379832        -0.014389        -0.143707
 C        -0.129182        -0.063119        -0.100053
 C         2.268627         0.993060        -0.934288
 C         3.336281         0.648095        -0.018167
 O         4.648880         1.200302        -0.118684
 C         2.419337         0.243300         1.141066
 H         3.756071        -2.550148         1.213549
 H         4.711500        -2.157570        -0.286821
 H         5.065748        -1.431715         1.362057
 H        -0.438275        -0.769872         0.661936
 H        -0.435646         0.947162         0.235164
 H        -0.630981        -0.244423        -1.097889
 H         2.271451         0.757436        -1.959590
 H         2.115163         2.079419        -0.741879
 H         4.778771         2.076289         0.230047
 H         2.200493         0.601021         2.177890
