19
Iteration:  3960
 C         4.243954        -1.867018         0.700914
 C         3.238048        -0.790532         0.325385
 O         2.043747        -1.329517        -0.347728
 C         1.438448         0.010533        -0.128284
 C        -0.061247        -0.046582        -0.109855
 C         2.111259         1.023217        -1.025525
 C         3.381774         0.673820        -0.086885
 O         4.623492         1.275886         0.023532
 C         2.399871         0.279656         0.990684
 H         3.878363        -2.361983         1.609076
 H         4.397946        -2.491560        -0.202489
 H         5.356908        -1.514804         1.010763
 H        -0.327823        -0.295535         0.886373
 H        -0.606091         0.919584        -0.000276
 H        -0.315195        -0.814414        -0.949371
 H         2.216384         0.888911        -2.160115
 H         1.910765         2.081142        -0.549622
 H         4.441819         2.252714        -0.103596
 H         2.080238         0.359376         2.106942
