19
Iteration:   275
 C         4.179554        -1.894288         0.606621
 C         3.144502        -0.859636         0.350927
 O         2.100579        -1.305411        -0.473911
 C         1.450551        -0.005430        -0.182211
 C        -0.094431        -0.055074         0.032169
 C         2.234616         1.063190        -0.992884
 C         3.422300         0.665343        -0.037708
 O         4.587411         1.410895        -0.000857
 C         2.370251         0.197312         1.037866
 H         3.665817        -2.764348         1.044926
 H         4.450915        -2.071062        -0.431559
 H         5.044686        -1.575951         1.250971
 H        -0.496971        -0.601031         0.833078
 H        -0.339483         0.912304         0.245447
 H        -0.680566        -0.298583        -0.897852
 H         2.383906         0.855256        -1.992719
 H         1.995216         2.124750        -0.880038
 H         4.875093         1.592610         0.908350
 H         2.338732         0.369501         2.189462
