19
Iteration:     5
 C         4.293118        -1.797235         0.553510
 C         3.184222        -0.834292         0.230670
 O         2.015209        -1.257152        -0.475176
 C         1.388264         0.004715        -0.106744
 C        -0.073068        -0.022405        -0.029496
 C         2.202157         1.012915        -0.964097
 C         3.351031         0.663037        -0.008247
 O         4.604226         1.313423         0.144460
 C         2.427290         0.207413         1.087600
 H         3.888733        -2.566188         1.289251
 H         4.578297        -2.398643        -0.309966
 H         4.987364        -1.268028         1.288579
 H        -0.386292        -0.902954         0.556294
 H        -0.460468         0.954375         0.199654
 H        -0.442486        -0.355461        -1.083570
 H         2.210841         0.863291        -2.067544
 H         1.821110         2.042299        -0.756019
 H         5.146855         1.063200        -0.640979
 H         2.199059         0.430245         2.122468
