19
Iteration:  4862charge 0 multiplicity 1
 C         4.302885        -1.816547         0.696550
 C         3.192090        -0.892958         0.305432
 O         2.030732        -1.362814        -0.521768
 C         1.382660         0.066381        -0.127063
 C        -0.049028         0.067507         0.038360
 C         2.165047         1.044741        -1.033161
 C         3.353348         0.605936        -0.138076
 O         4.519127         1.401952         0.064518
 C         2.456360         0.122982         1.039239
 H         4.031629        -2.771318         1.070635
 H         5.253157        -1.936449         0.175979
 H         4.639223        -1.182188         1.616587
 H        -0.455535        -0.344971         1.022059
 H        -0.283001         1.154151         0.096228
 H        -0.704508        -0.297048        -0.733474
 H         2.168101         0.811061        -2.140686
 H         1.971137         2.144957        -0.806504
 H         5.297292         0.881835        -0.046732
 H         2.368300         0.104324         2.137082
