19
Iteration:   452
 C         4.304943        -1.829711         0.634993
 C         3.131481        -0.886795         0.340693
 O         2.016686        -1.251875        -0.570199
 C         1.405282         0.153119        -0.147009
 C        -0.109345        -0.079746        -0.002687
 C         2.262903         1.050618        -0.986151
 C         3.413867         0.648439        -0.018059
 O         4.619398         1.324106         0.011946
 C         2.372171         0.110841         1.109503
 H         3.984373        -2.782959         1.330007
 H         4.715560        -2.367030        -0.213149
 H         5.011683        -1.273864         1.259934
 H        -0.068751        -0.772786         0.895618
 H        -0.723442         0.854961         0.290417
 H        -0.641072        -0.497055        -0.889559
 H         2.313487         0.517647        -1.970249
 H         2.039371         2.111791        -0.909264
 H         4.381325         2.211097         0.342612
 H         2.167459         0.409931         2.070635
