19
Iteration:  2503
 C         4.271143        -1.711336         0.659565
 C         3.144535        -0.891201         0.133984
 O         1.931719        -1.423050        -0.342154
 C         1.369843         0.030035        -0.073882
 C        -0.103142         0.009653        -0.043046
 C         2.221238         0.966859        -1.001699
 C         3.417560         0.587329        -0.126639
 O         4.668324         1.236470         0.114342
 C         2.481643         0.388084         1.021328
 H         4.055850        -2.728627         0.893268
 H         4.993304        -1.929187        -0.142946
 H         4.907081        -1.086872         1.392467
 H        -0.619105        -0.550089         0.769543
 H        -0.602919         1.061052        -0.005893
 H        -0.511063        -0.221549        -1.082363
 H         2.363423         1.011131        -2.055436
 H         1.767096         1.868642        -0.675148
 H         4.378433         2.166096         0.063503
 H         2.763559         0.395298         2.114505
