19
Iteration:  1715
 C         4.071799        -1.844097         0.796247
 C         3.152897        -0.824112         0.311020
 O         2.081729        -1.318974        -0.495697
 C         1.408221         0.020144        -0.122759
 C        -0.007796        -0.050138         0.006735
 C         2.202937         1.021072        -1.046631
 C         3.371869         0.653684        -0.022930
 O         4.668307         1.360418        -0.068637
 C         2.431947         0.210258         1.021750
 H         3.608131        -2.842218         0.940533
 H         4.609558        -2.139359        -0.140489
 H         4.973735        -1.467487         1.314641
 H        -0.204506        -0.872416         0.766611
 H        -0.450225         0.831927         0.484492
 H        -0.673533        -0.306984        -0.756594
 H         2.434993         0.669805        -2.072658
 H         1.943950         2.074058        -0.852969
 H         4.550161         2.262556         0.332368
 H         2.359518         0.451678         2.142808
