19
Iteration:  4275charge 0 multiplicity 1
 C         4.268242        -1.787075         0.666204
 C         3.200414        -0.791165         0.355791
 O         2.062011        -1.305656        -0.407137
 C         1.399620        -0.032475        -0.093479
 C        -0.192838        -0.045379        -0.023987
 C         2.224611         0.954934        -1.078821
 C         3.399981         0.716271        -0.054493
 O         4.659922         1.281539        -0.046765
 C         2.378523         0.258956         1.062417
 H         3.760987        -2.719241         0.841441
 H         4.999156        -1.904452        -0.111070
 H         4.774256        -1.336127         1.566636
 H        -0.555399        -0.679972         0.731696
 H        -0.518187         1.009837        -0.000013
 H        -0.593760        -0.436340        -0.969993
 H         2.343598         0.552862        -2.092526
 H         1.867695         1.977138        -1.128530
 H         4.803773         1.604752         0.841489
 H         2.159503         0.594024         2.035079
