19
Iteration:  2699
 C         4.202117        -1.848163         0.677350
 C         3.224831        -0.835629         0.324309
 O         2.024483        -1.272227        -0.390689
 C         1.357791        -0.012718        -0.043131
 C        -0.091586        -0.075674        -0.098491
 C         2.149351         1.085898        -1.028707
 C         3.386745         0.698768        -0.140147
 O         4.668623         1.211949        -0.002678
 C         2.461127         0.269277         1.048449
 H         3.787056        -2.796620         0.965603
 H         4.945579        -2.015554        -0.101547
 H         4.755074        -1.570440         1.624296
 H        -0.368760        -0.767023         0.693485
 H        -0.561936         0.936198         0.168015
 H        -0.526124        -0.479319        -1.009242
 H         2.241534         1.027706        -2.166526
 H         1.798568         2.151997        -0.712975
 H         4.664504         2.136436         0.351746
 H         2.622842         0.521439         2.060557
