19
Iteration:  4468
 C         4.266048        -1.779399         0.810911
 C         3.158137        -0.826980         0.219948
 O         2.034855        -1.276914        -0.458390
 C         1.407586        -0.052356        -0.150049
 C        -0.065618        -0.048128        -0.035920
 C         2.188326         1.102859        -0.953105
 C         3.353211         0.656558        -0.068547
 O         4.617229         1.241786        -0.030776
 C         2.420797         0.198319         1.084298
 H         3.907034        -2.652506         1.358254
 H         5.089448        -2.220361         0.080891
 H         4.727643        -1.084047         1.529061
 H        -0.334316        -0.662826         0.791745
 H        -0.386162         1.012414        -0.007919
 H        -0.417959        -0.515049        -1.045173
 H         2.206913         0.873023        -2.049122
 H         1.926660         2.144393        -0.766651
 H         4.627679         2.003464        -0.650408
 H         2.208407         0.215148         2.152648
