19
Iteration:  1081
 C         4.357939        -1.692062         0.611777
 C         3.151971        -0.884176         0.376916
 O         1.959320        -1.289143        -0.523579
 C         1.390078        -0.050360        -0.191973
 C        -0.032509         0.008789        -0.051239
 C         2.307713         0.959526        -0.922584
 C         3.312533         0.698025         0.076528
 O         4.600830         1.209032        -0.081122
 C         2.305135         0.239929         1.123009
 H         4.050749        -2.708755         1.024379
 H         4.908887        -1.835467        -0.324186
 H         5.055012        -1.177639         1.242116
 H        -0.345491        -0.947785         0.372812
 H        -0.477303         0.800661         0.604559
 H        -0.337845         0.258004        -1.052268
 H         2.491325         0.769177        -1.964329
 H         1.922225         2.034617        -0.789118
 H         4.778804         1.900272         0.579912
 H         2.201197         0.391429         2.164235
