19
Iteration:  3574charge 0 multiplicity 1
 C         4.324258        -1.766739         0.644470
 C         3.213076        -0.762199         0.264067
 O         2.036047        -1.389672        -0.329447
 C         1.323942         0.006139        -0.151392
 C        -0.148549         0.017130        -0.125424
 C         2.202259         1.015611        -1.028751
 C         3.335621         0.672259        -0.069370
 O         4.670478         1.191289         0.073155
 C         2.433520         0.265023         1.094689
 H         4.078633        -2.423611         1.461680
 H         4.557573        -2.353948        -0.243418
 H         5.224211        -1.257946         1.126456
 H        -0.440524        -0.497504         0.817709
 H        -0.514369         1.027324        -0.251518
 H        -0.526544        -0.723650        -0.832161
 H         2.340287         0.757238        -2.086780
 H         1.823280         2.033718        -0.980312
 H         4.451255         2.104155        -0.157123
 H         2.225984         0.699541         2.169810
