19
Iteration:  4551charge 0 multiplicity 1
 C         4.271578        -1.807352         0.536740
 C         3.179207        -0.822547         0.375216
 O         2.026326        -1.308833        -0.352749
 C         1.344738        -0.053436        -0.187416
 C        -0.077039        -0.020442         0.016192
 C         2.265183         0.871660        -1.071502
 C         3.363877         0.680465        -0.102746
 O         4.607856         1.418671         0.082907
 C         2.332353         0.289333         1.043833
 H         4.057979        -2.600351         1.325526
 H         4.502144        -2.262173        -0.362680
 H         5.120478        -1.210442         0.796540
 H        -0.646940        -0.647937         0.796550
 H        -0.253968         1.015779         0.312792
 H        -0.540045        -0.164565        -0.936179
 H         2.559548         0.741630        -2.137805
 H         2.069260         1.931924        -0.781615
 H         5.358083         0.918656         0.376109
 H         2.191957         0.438845         2.064352
