19
Iteration:  3705
 C         4.241798        -1.706608         0.719951
 C         3.180229        -0.749825         0.315043
 O         2.099335        -1.400346        -0.448632
 C         1.335439         0.044593        -0.064356
 C        -0.134476        -0.002755        -0.094076
 C         2.149275         0.964389        -0.988058
 C         3.434006         0.699395        -0.039442
 O         4.707636         1.170366        -0.020686
 C         2.360436         0.294549         1.097238
 H         3.909393        -2.635526         1.242542
 H         4.747202        -1.982027        -0.240910
 H         5.081877        -1.151447         1.183785
 H        -0.292134        -0.900073         0.528892
 H        -0.682004         0.816655         0.267218
 H        -0.317043        -0.157062        -1.097900
 H         2.094937         0.438771        -2.000594
 H         1.561723         1.904438        -1.019174
 H         4.714631         2.108023        -0.378649
 H         2.205967         0.275060         2.131147
