19
Iteration:  3464charge 0 multiplicity 1
 C         4.219092        -1.826515         0.823315
 C         3.230600        -0.768702         0.334618
 O         1.973639        -1.362571        -0.563385
 C         1.354209        -0.009536        -0.221207
 C        -0.065971        -0.023773         0.053239
 C         2.266653         0.969433        -1.100484
 C         3.408059         0.679266        -0.049338
 O         4.639480         1.292941        -0.018460
 C         2.364647         0.255827         1.067004
 H         3.731345        -2.555563         1.412920
 H         4.853510        -2.241084         0.059608
 H         5.049824        -1.291833         1.420459
 H        -0.421483        -0.795775         0.791532
 H        -0.120990         0.984683         0.681667
 H        -0.730746         0.138912        -0.831933
 H         2.407959         0.619733        -2.095803
 H         1.913621         1.951267        -0.911209
 H         4.365365         2.250003         0.174342
 H         2.543926         0.301577         2.167505
