19
Iteration:   538charge 0 multiplicity 1
 C         4.251136        -1.738699         0.559566
 C         3.102676        -0.781780         0.300457
 O         1.963255        -1.319522        -0.505555
 C         1.406294         0.038998        -0.076991
 C        -0.095351        -0.056819        -0.053387
 C         2.287295         0.941692        -0.978732
 C         3.405605         0.671163         0.070449
 O         4.644938         1.296854         0.011304
 C         2.433078         0.193309         1.144611
 H         3.845231        -2.644285         1.063705
 H         4.642221        -1.991588        -0.386460
 H         5.026018        -1.264720         1.105660
 H        -0.303616        -1.093322         0.357782
 H        -0.702573         0.840885         0.262752
 H        -0.551282        -0.212012        -1.063774
 H         2.375636         0.566204        -2.040291
 H         1.979458         2.013587        -1.104258
 H         4.734274         2.208285         0.408187
 H         2.464956         0.290370         2.174388
