19
Iteration:   692
 C         4.210141        -1.771446         0.676029
 C         3.268458        -0.751384         0.181017
 O         1.994301        -1.264637        -0.456244
 C         1.360873        -0.004967        -0.086837
 C        -0.192422        -0.059723        -0.043875
 C         2.299021         1.043297        -0.960795
 C         3.404837         0.666191        -0.106522
 O         4.628891         1.315152         0.041137
 C         2.487671         0.088184         1.111062
 H         3.418701        -2.625045         1.032808
 H         4.827727        -2.186915        -0.108614
 H         4.711414        -1.535633         1.603016
 H        -0.436231        -1.159713         0.189960
 H        -0.632752         0.375429         0.952022
 H        -0.573185        -0.001357        -1.070510
 H         2.380254         0.668144        -2.051087
 H         1.895629         2.087557        -0.802076
 H         4.376034         2.232652        -0.096101
 H         2.734511         0.384324         2.206287
