19
Iteration:  2523charge 0 multiplicity 1
 C         4.223396        -1.820242         0.665123
 C         3.222125        -0.812595         0.335894
 O         1.989676        -1.325768        -0.389594
 C         1.422520        -0.003499        -0.115541
 C        -0.084443         0.011111        -0.036797
 C         2.211075         1.046826        -0.995538
 C         3.350027         0.696648        -0.099866
 O         4.641535         1.268551        -0.017425
 C         2.444856         0.139286         1.043872
 H         3.703962        -2.608181         1.235013
 H         4.785035        -2.347711        -0.098707
 H         4.950929        -1.264794         1.295880
 H        -0.444905        -0.651229         0.849716
 H        -0.616824         1.032436         0.030022
 H        -0.458811        -0.335948        -0.990133
 H         2.308844         0.721691        -2.049994
 H         2.020976         2.153631        -0.899374
 H         4.631105         2.268223        -0.075159
 H         2.278644         0.416769         2.107502
