19
Iteration:  2960
 C         4.230633        -1.833299         0.660354
 C         3.212013        -0.823451         0.317602
 O         1.999626        -1.274719        -0.384797
 C         1.408929         0.061438        -0.048362
 C        -0.071939        -0.004808        -0.083368
 C         2.187708         0.936670        -1.066177
 C         3.364458         0.649776        -0.129822
 O         4.612299         1.291252         0.082261
 C         2.493369         0.208430         1.028785
 H         3.892455        -2.566028         1.449780
 H         4.507124        -2.403779        -0.263233
 H         5.011743        -1.245668         1.169125
 H        -0.295163        -0.938855         0.426026
 H        -0.562902         0.989691         0.374321
 H        -0.426106        -0.107397        -1.137316
 H         2.024474         0.561535        -2.070654
 H         1.772672         1.935213        -1.073999
 H         4.347363         2.235696         0.231914
 H         2.769033         0.501900         2.048032
