19
Iteration:  2951
 C         4.177141        -1.832398         0.731308
 C         3.226958        -0.808082         0.265858
 O         2.047330        -1.230067        -0.397154
 C         1.421606         0.043650        -0.035659
 C        -0.048838        -0.030303        -0.068980
 C         2.148098         0.928989        -1.019029
 C         3.428437         0.631284        -0.224182
 O         4.571333         1.266274         0.051808
 C         2.477372         0.220509         1.048166
 H         3.791985        -2.634657         1.409756
 H         4.625760        -2.247181        -0.207895
 H         5.063600        -1.386457         1.067819
 H        -0.423827        -0.865044         0.491005
 H        -0.605406         0.870625         0.413275
 H        -0.380358        -0.022008        -1.198395
 H         2.192294         0.735702        -2.043701
 H         1.856293         1.947496        -0.759554
 H         4.360949         2.187926         0.368137
 H         2.385714         0.553455         2.072987
