19
Iteration:   841
 C         4.202130        -1.843160         0.706851
 C         3.273035        -0.823636         0.171044
 O         2.048211        -1.252465        -0.535569
 C         1.440683         0.045334        -0.016512
 C        -0.117156        -0.091394        -0.072191
 C         2.174443         1.062854        -0.882852
 C         3.376159         0.659026        -0.009231
 O         4.563200         1.305940        -0.041829
 C         2.473001         0.164165         1.103238
 H         3.554119        -2.627128         1.112147
 H         4.741405        -2.426475        -0.081225
 H         5.053761        -1.516643         1.249187
 H        -0.555425        -0.856388         0.655597
 H        -0.559670         0.924968        -0.051337
 H        -0.365662        -0.514959        -1.069562
 H         2.255233         0.938330        -1.960100
 H         1.951068         2.164851        -0.891952
 H         4.535500         2.130460         0.489560
 H         2.472825         0.415902         2.235595
