19
Iteration:  4902charge 0 multiplicity 1
 C         4.406320        -1.753159         0.570855
 C         3.140182        -0.891185         0.299804
 O         2.017534        -1.321077        -0.409929
 C         1.383691        -0.035649        -0.095585
 C        -0.113080         0.089084        -0.034106
 C         2.211843         1.014185        -1.072414
 C         3.351691         0.656610        -0.072052
 O         4.588107         1.299094         0.166862
 C         2.361839         0.225114         1.083775
 H         4.055978        -2.762130         0.887908
 H         4.965056        -1.928318        -0.402498
 H         5.023672        -1.407432         1.381532
 H        -0.394044        -0.226853         0.924517
 H        -0.295447         1.151040        -0.116375
 H        -0.686603        -0.576485        -0.775483
 H         2.130422         0.467482        -2.012078
 H         1.968385         2.060706        -1.163403
 H         5.134663         1.113298        -0.663680
 H         2.223648         0.368708         2.134492
