19
Iteration:   646charge 0 multiplicity 1
 C         4.176758        -1.825082         0.724565
 C         3.264454        -0.783050         0.344696
 O         2.140112        -1.201414        -0.595405
 C         1.326486         0.039006        -0.158937
 C        -0.128945        -0.152365         0.026043
 C         2.166021         1.113941        -0.947775
 C         3.403253         0.660705        -0.045751
 O         4.713222         1.237768        -0.073970
 C         2.316040         0.117392         1.102454
 H         3.588882        -2.607148         1.356032
 H         4.507762        -2.278526        -0.264906
 H         5.083084        -1.522983         1.289602
 H        -0.398632        -0.877722         0.858653
 H        -0.431144         0.845391         0.413303
 H        -0.564488        -0.494105        -0.908494
 H         2.274081         1.162049        -2.065122
 H         1.871729         2.155131        -0.552986
 H         4.725063         2.097700         0.408293
 H         2.140383         0.456381         2.077920
