19
Iteration:  2733charge 0 multiplicity 1
 C         4.140951        -1.855166         0.783831
 C         3.108837        -0.785557         0.332778
 O         2.075757        -1.214188        -0.573906
 C         1.444742         0.015351        -0.097698
 C        -0.081544        -0.146260         0.036859
 C         2.302136         1.066887        -0.978977
 C         3.333947         0.706354        -0.044476
 O         4.694931         1.247009        -0.134004
 C         2.325402         0.174825         1.090962
 H         3.629578        -2.628617         1.381520
 H         4.702508        -2.244619        -0.086642
 H         4.872691        -1.184233         1.274357
 H        -0.220994        -0.859846         0.813206
 H        -0.548489         0.752537         0.477395
 H        -0.615584        -0.449043        -0.961581
 H         2.493247         0.828523        -2.097697
 H         2.123218         2.204371        -0.752248
 H         4.738133         2.178567         0.074558
 H         2.333673         0.324460         2.171836
