19
Iteration:  4773charge 0 multiplicity 1
 C         4.342919        -1.808278         0.652439
 C         3.161288        -0.846595         0.416108
 O         2.012852        -1.304509        -0.366012
 C         1.421600         0.008159        -0.111363
 C        -0.207448        -0.027336        -0.140472
 C         2.192845         1.014436        -0.961894
 C         3.399557         0.672987        -0.107377
 O         4.539557         1.324737         0.063804
 C         2.517203         0.210994         1.021069
 H         4.222630        -2.340406         1.555807
 H         4.259970        -2.570649        -0.161338
 H         5.251565        -1.205260         0.578126
 H        -0.457434        -0.969768         0.239040
 H        -0.513009         0.762567         0.530421
 H        -0.612744         0.231876        -1.181110
 H         2.291466         0.946650        -2.088529
 H         1.935543         2.067918        -0.711345
 H         5.064851         1.153214        -0.709839
 H         2.509311         0.474678         2.031073
