19
Iteration:  4101
 C         4.254700        -1.778011         0.655997
 C         3.194212        -0.851753         0.336144
 O         2.069327        -1.369348        -0.310349
 C         1.393009        -0.050904        -0.115471
 C        -0.129627         0.006763        -0.085803
 C         2.204873         0.993971        -1.023543
 C         3.420857         0.625488        -0.114867
 O         4.625334         1.320649         0.007779
 C         2.421830         0.240770         0.998086
 H         3.760867        -2.556177         1.175503
 H         4.653427        -1.995631        -0.305714
 H         5.000173        -1.239905         1.319230
 H        -0.576330        -0.377927         0.797922
 H        -0.233407         1.098897         0.038575
 H        -0.479028        -0.366337        -1.082790
 H         2.121778         0.836299        -2.082719
 H         1.806858         1.982323        -0.828647
 H         4.388203         2.149085         0.459321
 H         2.063195         0.567605         2.003095
