19
Iteration:  1674
 C         4.178826        -1.807117         0.696946
 C         3.255058        -0.815237         0.309728
 O         2.037882        -1.350278        -0.429915
 C         1.414375         0.052830        -0.126020
 C        -0.108751        -0.022750         0.015134
 C         2.171473         1.019429        -1.044246
 C         3.421345         0.605400        -0.147408
 O         4.587042         1.305784         0.055821
 C         2.516277         0.231137         1.060709
 H         3.520701        -2.711671         1.079868
 H         4.732587        -2.261352        -0.101281
 H         4.528338        -1.434112         1.654597
 H        -0.502264        -1.054461         0.355146
 H        -0.394978         0.924129         0.504607
 H        -0.458618        -0.037548        -1.140149
 H         2.197314         0.749935        -2.223095
 H         1.933839         2.080174        -0.905059
 H         4.359786         2.244878        -0.024856
 H         2.638468         0.609606         2.067306
