19
Iteration:  4500charge 0 multiplicity 1
 C         4.201486        -1.850977         0.743467
 C         3.258857        -0.885293         0.182625
 O         2.044305        -1.284400        -0.418782
 C         1.391556         0.013856        -0.096187
 C        -0.146836        -0.109285        -0.105853
 C         2.156865         1.070547        -0.892009
 C         3.403906         0.639835        -0.088617
 O         4.634111         1.327247         0.029960
 C         2.462237         0.345093         1.075883
 H         3.625161        -2.551225         1.382347
 H         4.882186        -2.367697        -0.132523
 H         4.884155        -1.318384         1.439958
 H        -0.477389        -0.596630         0.803954
 H        -0.692186         0.857000        -0.297471
 H        -0.389969        -0.823359        -1.048609
 H         1.998576         0.829118        -1.960014
 H         1.921541         2.099053        -0.625904
 H         4.973481         1.580182        -0.871241
 H         2.416776         0.490741         2.161333
