19
Iteration:  4028charge 0 multiplicity 1
 C         4.266737        -1.711290         0.755025
 C         3.156446        -0.831161         0.287570
 O         2.029523        -1.346073        -0.366006
 C         1.430066        -0.074015        -0.191586
 C        -0.091987        -0.087129        -0.081954
 C         2.159176         1.061708        -0.990094
 C         3.315500         0.688563        -0.143799
 O         4.637611         1.171541        -0.002571
 C         2.495306         0.291771         1.046156
 H         3.833244        -2.448685         1.439642
 H         4.759300        -2.099554        -0.153932
 H         4.784488        -0.965410         1.442873
 H        -0.555777        -0.978592         0.404156
 H        -0.259809         0.831790         0.581491
 H        -0.472487         0.045070        -1.071638
 H         2.293270         1.075188        -2.110310
 H         1.782476         2.040093        -0.501464
 H         4.772033         2.085431         0.203217
 H         2.346871         0.697578         1.940778
