19
Iteration:  3415
 C         4.271004        -1.786925         0.724980
 C         3.243751        -0.858841         0.272946
 O         1.996321        -1.226027        -0.399336
 C         1.360191        -0.027976        -0.090621
 C        -0.134214        -0.000936        -0.151142
 C         2.148839         0.957051        -0.995189
 C         3.407681         0.685126        -0.067781
 O         4.636263         1.210189         0.010963
 C         2.500920         0.298910         1.038084
 H         3.625060        -2.523591         1.341763
 H         4.713518        -2.370189        -0.150757
 H         5.162074        -1.483301         1.220352
 H        -0.424907        -0.497942         0.763156
 H        -0.629589         0.920747        -0.088034
 H        -0.484649        -0.711605        -0.925202
 H         2.347543         0.545739        -2.030596
 H         1.795356         2.028714        -0.845336
 H         4.547846         2.009826         0.514530
 H         2.382239         0.703922         2.093837
