19
Iteration:  3033
 C         4.389483        -1.679799         0.667336
 C         3.163800        -0.793178         0.266410
 O         1.945623        -1.292829        -0.376791
 C         1.347607         0.011512        -0.129902
 C        -0.148174         0.002339        -0.078604
 C         2.141419         0.979297        -0.981207
 C         3.339158         0.681123        -0.083666
 O         4.716743         1.130948         0.032309
 C         2.441650         0.205588         1.068048
 H         3.947857        -2.415542         1.337068
 H         4.745072        -2.284030        -0.149344
 H         5.192694        -1.086864         1.235351
 H        -0.714311        -0.634921         0.664294
 H        -0.426496         1.052011        -0.238344
 H        -0.358438        -0.551337        -1.071226
 H         2.401537         0.686075        -2.092249
 H         1.958282         2.088124        -0.976667
 H         4.651386         2.024037         0.360631
 H         2.632594         0.389089         2.161592
