19
Iteration:  3933
 C         4.282540        -1.775677         0.635032
 C         3.152252        -0.802438         0.340828
 O         2.026772        -1.370584        -0.402891
 C         1.415125        -0.013831        -0.080041
 C        -0.172271        -0.022999        -0.055202
 C         2.240646         0.942955        -1.107189
 C         3.337303         0.658971        -0.119438
 O         4.605166         1.301203         0.104693
 C         2.496437         0.252248         1.051711
 H         3.963882        -2.494680         1.394778
 H         4.476606        -2.226311        -0.343112
 H         5.071027        -1.254662         1.085341
 H        -0.612546        -0.296820         0.961873
 H        -0.397232         1.044635        -0.047242
 H        -0.497908        -0.610014        -0.876972
 H         2.517121         0.485760        -2.016224
 H         1.992393         1.958194        -1.094439
 H         4.436655         2.256544         0.277640
 H         2.644586         0.933473         1.902098
