19
Iteration:  4893charge 0 multiplicity 1
 C         4.361402        -1.783024         0.549378
 C         3.184568        -0.807024         0.287818
 O         1.985726        -1.361216        -0.470742
 C         1.350991        -0.063703        -0.072551
 C        -0.108313         0.115997         0.034277
 C         2.259522         0.924223        -1.061273
 C         3.328050         0.659880        -0.047308
 O         4.576451         1.334983         0.157384
 C         2.406401         0.209191         1.045331
 H         4.027417        -2.697431         1.021876
 H         5.330125        -1.754307        -0.152604
 H         4.757870        -1.102880         1.428725
 H        -0.479579        -0.061994         1.040237
 H        -0.253746         1.158171        -0.243846
 H        -0.549761        -0.398345        -0.871933
 H         2.313857         0.637771        -2.183467
 H         1.877537         1.989244        -0.921030
 H         5.173675         0.929893        -0.568790
 H         2.140010         0.216724         2.101446
