19
Iteration:   593charge 0 multiplicity 1
 C         4.428586        -1.757548         0.493115
 C         3.177165        -0.875884         0.290814
 O         2.041950        -1.351348        -0.376635
 C         1.331333         0.004755        -0.042179
 C        -0.176076         0.060496        -0.134975
 C         2.178406         1.060664        -0.975623
 C         3.434379         0.545054        -0.157509
 O         4.572045         1.239602         0.197798
 C         2.445928         0.217112         1.040680
 H         4.297297        -2.507116         1.349519
 H         4.609753        -2.281448        -0.410000
 H         5.120698        -1.050343         0.833629
 H        -0.678268        -0.187342         0.868594
 H        -0.570425         1.143723        -0.270787
 H        -0.509776        -0.482105        -1.037181
 H         2.256381         0.867113        -2.074879
 H         1.801065         2.008723        -0.539545
 H         4.407950         2.178756         0.428794
 H         2.338132         0.594885         2.004753
