19
Iteration:  3783charge 0 multiplicity 1
 C         4.238223        -1.827940         0.706537
 C         3.177913        -0.784482         0.291786
 O         2.012202        -1.329469        -0.400903
 C         1.382351        -0.038481        -0.157716
 C        -0.086062        -0.008368        -0.091272
 C         2.181486         0.914097        -1.056128
 C         3.341410         0.735662        -0.076765
 O         4.566126         1.298067         0.013378
 C         2.595992         0.289240         1.091193
 H         3.736698        -2.412113         1.558829
 H         4.492932        -2.575600        -0.091061
 H         5.107547        -1.404821         1.154016
 H        -0.186946        -0.518911         0.849368
 H        -0.391581         0.965923        -0.086214
 H        -0.599107        -0.676830        -0.798872
 H         2.408574         0.704570        -2.135127
 H         1.756311         1.941825        -1.095766
 H         4.463265         2.038470         0.673915
 H         2.713127         0.648153         2.132866
