19
Iteration:   679
 C         4.118874        -1.822290         0.699816
 C         3.217128        -0.845875         0.163236
 O         2.031209        -1.266316        -0.471483
 C         1.435220         0.026926        -0.073270
 C        -0.091608        -0.189135        -0.020212
 C         2.220372         1.115424        -0.958525
 C         3.358761         0.693910        -0.058082
 O         4.596844         1.262494         0.037061
 C         2.538320         0.213005         1.056770
 H         3.435228        -2.741180         1.091215
 H         4.944005        -2.254152         0.027637
 H         4.704821        -1.345742         1.505271
 H        -0.273772        -1.285545         0.225911
 H        -0.584395         0.622003         0.597898
 H        -0.601754         0.156911        -0.911245
 H         2.347061         1.160956        -2.071186
 H         1.892127         2.186975        -0.698285
 H         4.615682         2.229713        -0.155592
 H         2.640593         0.588766         2.078140
