19
Iteration:   880charge 0 multiplicity 1
 C         4.327592        -1.814697         0.650912
 C         3.163274        -0.876717         0.315840
 O         2.061927        -1.416672        -0.463686
 C         1.345625         0.022229        -0.184468
 C        -0.130405         0.026951        -0.016520
 C         2.176066         1.088782        -1.015205
 C         3.376826         0.667254        -0.007427
 O         4.631145         1.302397         0.065439
 C         2.433326         0.208683         1.018018
 H         3.979355        -2.784696         0.995684
 H         4.802645        -1.889295        -0.327826
 H         5.018581        -1.401832         1.440041
 H        -0.563449        -0.906267         0.275359
 H        -0.268330         0.734567         0.761412
 H        -0.673868         0.344888        -0.935702
 H         2.239790         0.901223        -2.109413
 H         1.889901         2.056355        -0.699803
 H         4.476579         2.239593         0.201551
 H         2.434683         0.222103         2.093182
