19
Iteration:  4882charge 0 multiplicity 1
 C         4.290768        -1.674885         0.645906
 C         3.225668        -0.858586         0.188037
 O         1.963687        -1.381634        -0.500314
 C         1.431044        -0.068119        -0.129238
 C        -0.099157         0.177926         0.061904
 C         2.232881         0.877511        -1.000381
 C         3.366922         0.678604        -0.029219
 O         4.527814         1.356647         0.117953
 C         2.425934         0.134178         1.033121
 H         4.022687        -2.712821         0.868092
 H         5.144523        -1.820793        -0.181503
 H         4.772220        -1.249883         1.621705
 H        -0.626509        -0.135678         0.950792
 H        -0.366958         1.215071        -0.116884
 H        -0.653408        -0.487140        -0.669852
 H         2.606944         0.777230        -2.063510
 H         1.783859         1.906732        -0.843492
 H         5.286938         0.889832        -0.311748
 H         2.399379         0.382369         2.081714
