19
Iteration:  4817
 C         4.078613        -1.855181         0.696864
 C         3.153376        -0.770710         0.290490
 O         2.078959        -1.226198        -0.384944
 C         1.408104         0.016593        -0.092488
 C        -0.057987        -0.187382        -0.020374
 C         2.192258         1.083663        -1.057401
 C         3.378254         0.703129        -0.051238
 O         4.665303         1.351539        -0.020043
 C         2.488527         0.259000         1.127934
 H         3.586422        -2.682513         1.142338
 H         4.450986        -2.310589        -0.271933
 H         5.039319        -1.513416         1.153117
 H        -0.223621        -1.215436         0.218973
 H        -0.730130         0.444886         0.545488
 H        -0.385151        -0.118614        -1.108584
 H         2.149627         0.838549        -2.157737
 H         1.697576         2.057112        -0.815182
 H         5.261620         0.942310        -0.627401
 H         2.286320         0.145178         2.141867
