19
Iteration:  2807
 C         4.406338        -1.854672         0.537844
 C         3.181020        -0.842600         0.415337
 O         1.992543        -1.298776        -0.393243
 C         1.396469         0.063450        -0.100749
 C        -0.148517         0.068478        -0.121530
 C         2.242758         0.901485        -1.042730
 C         3.405804         0.611684        -0.008711
 O         4.568775         1.288387         0.013905
 C         2.375978         0.242890         1.102237
 H         4.119940        -2.494738         1.340064
 H         4.731663        -2.348729        -0.374679
 H         5.262175        -1.159390         0.672972
 H        -0.591942        -0.624829         0.616257
 H        -0.702513         1.045880         0.239046
 H        -0.389432        -0.048504        -1.126417
 H         2.347918         0.427559        -1.984839
 H         1.909696         1.916078        -0.951286
 H         4.743454         2.008054         0.681133
 H         1.999804         0.716408         2.037235
