19
Iteration:  2210charge 0 multiplicity 1
 C         4.248632        -1.823531         0.762908
 C         3.214347        -0.826791         0.255253
 O         2.062158        -1.306695        -0.451170
 C         1.399772         0.140926        -0.099311
 C        -0.118598        -0.046480         0.025669
 C         2.207392         1.076017        -1.034710
 C         3.396386         0.601337        -0.137143
 O         4.597435         1.219488         0.023279
 C         2.470958         0.243322         1.006781
 H         3.629803        -2.353180         1.455705
 H         4.482679        -2.506584        -0.040497
 H         5.123528        -1.398548         1.240284
 H        -0.402179        -0.860477         0.569919
 H        -0.787919         0.828784         0.272960
 H        -0.550337        -0.478007        -0.970350
 H         2.172642         0.707794        -2.068658
 H         1.887268         2.090170        -0.911170
 H         4.337826         2.091561         0.338320
 H         2.465590         0.461261         2.060497
