19
Iteration:   574
 C         4.395507        -1.746652         0.449520
 C         3.261761        -0.854415         0.359225
 O         2.046293        -1.375151        -0.360340
 C         1.356616        -0.056226        -0.205560
 C        -0.160805         0.094236        -0.138222
 C         2.230251         0.990796        -1.012931
 C         3.292207         0.660785         0.011013
 O         4.548751         1.207132         0.143763
 C         2.417551         0.274867         1.129683
 H         4.131914        -2.677821         1.029480
 H         4.463430        -2.094112        -0.589424
 H         5.382108        -1.410388         0.778574
 H        -0.512478        -0.391246         0.797002
 H        -0.495003         1.172082         0.099691
 H        -0.505861        -0.329474        -1.073988
 H         2.162683         0.702701        -2.111637
 H         1.895539         1.970840        -0.700702
 H         4.599909         2.155883         0.457672
 H         2.568719         0.783829         2.131031
