19
Iteration:  2622charge 0 multiplicity 1
 C         4.322545        -1.722948         0.621361
 C         3.195952        -0.830399         0.357278
 O         2.039543        -1.288252        -0.422822
 C         1.369237        -0.005301        -0.204832
 C        -0.087555         0.048059        -0.021335
 C         2.221354         0.930709        -0.989467
 C         3.356230         0.640732        -0.059979
 O         4.607072         1.160335         0.005530
 C         2.342401         0.254497         1.112263
 H         4.163567        -2.586368         1.248305
 H         4.621444        -2.206344        -0.306081
 H         5.319915        -1.212703         0.908682
 H        -0.479448        -0.582713         0.785601
 H        -0.391583         1.135184         0.267036
 H        -0.566836         0.093167        -0.969290
 H         2.396209         0.639090        -2.084956
 H         1.962233         2.065611        -1.064069
 H         4.469751         2.074181         0.377008
 H         2.246095         0.399124         2.189426
