19
Iteration:  4594charge 0 multiplicity 1
 C         4.291136        -1.643422         0.701881
 C         3.172308        -0.869862         0.279607
 O         2.029750        -1.345497        -0.478759
 C         1.375287        -0.046368        -0.033063
 C        -0.124043         0.119400        -0.046691
 C         2.201029         0.940652        -0.998237
 C         3.437235         0.555900        -0.105840
 O         4.560874         1.348072        -0.019478
 C         2.412240         0.174129         1.054883
 H         4.095972        -2.399322         1.538628
 H         4.705126        -2.099942        -0.140116
 H         5.100075        -0.989907         1.081776
 H        -0.615304        -0.866818         0.310425
 H        -0.365909         0.949584         0.621355
 H        -0.362851         0.264795        -1.066170
 H         2.016649         0.621642        -2.054027
 H         1.872170         1.999872        -0.807202
 H         5.202273         0.969104         0.614020
 H         2.445358         0.309793         2.093947
