19
Iteration:  3341charge 0 multiplicity 1
 C         4.314968        -1.703604         0.680414
 C         3.167451        -0.775442         0.382885
 O         2.025461        -1.281711        -0.419137
 C         1.353098         0.031859        -0.140232
 C        -0.144181         0.028122        -0.070934
 C         2.222764         0.895482        -0.999998
 C         3.434052         0.669787        -0.115921
 O         4.623186         1.167070         0.056991
 C         2.404353         0.219537         1.064777
 H         4.018136        -2.590726         1.328703
 H         4.614296        -2.240499        -0.249738
 H         5.225058        -1.328022         1.100185
 H        -0.639209        -0.741921         0.553373
 H        -0.576736         1.116438         0.087392
 H        -0.463105        -0.283011        -1.082983
 H         2.226330         0.602911        -2.086283
 H         1.911647         1.949227        -0.963721
 H         4.738193         2.124471        -0.208730
 H         2.269085         0.398143         2.168483
