19
Iteration:  2871
 C         4.312140        -1.804571         0.663938
 C         3.208552        -0.832452         0.352138
 O         2.024666        -1.291175        -0.453826
 C         1.393247         0.034369        -0.130538
 C        -0.170335        -0.049339        -0.068152
 C         2.128350         1.073727        -1.014263
 C         3.390545         0.602407        -0.113912
 O         4.641545         1.193649         0.089401
 C         2.505991         0.272197         1.025611
 H         3.885044        -2.695653         1.154628
 H         5.038706        -2.132643        -0.104256
 H         4.918132        -1.262488         1.515733
 H        -0.659642        -0.670049         0.797785
 H        -0.528123         1.101863         0.168487
 H        -0.648983        -0.536986        -0.882262
 H         2.069404         0.954561        -2.105464
 H         1.786119         2.065878        -0.746968
 H         4.610058         2.143051        -0.188312
 H         2.383699         0.594819         2.100281
