19
Iteration:   785
 C         4.298227        -1.788950         0.546499
 C         3.159708        -0.807484         0.245614
 O         2.027267        -1.184289        -0.454018
 C         1.394228         0.070134        -0.103316
 C        -0.112404        -0.133679        -0.066290
 C         2.237625         1.056445        -1.043070
 C         3.339308         0.619474        -0.034180
 O         4.571899         1.188196         0.136668
 C         2.451215         0.219942         1.145238
 H         4.173257        -2.349637         1.396327
 H         4.430492        -2.407663        -0.356896
 H         5.180451        -1.188233         0.701698
 H        -0.456020        -0.449356         0.938566
 H        -0.723466         0.716606        -0.260433
 H        -0.386611        -0.976144        -0.777779
 H         2.398834         0.798000        -2.068994
 H         2.006566         2.084184        -0.775625
 H         4.564096         2.164107         0.265484
 H         2.737986         0.280813         2.189938
