19
Iteration:   808
 C         4.236804        -1.849625         0.570090
 C         3.135966        -0.796106         0.304952
 O         2.069991        -1.325945        -0.482982
 C         1.429292        -0.019955        -0.167509
 C        -0.052865        -0.150462        -0.035839
 C         2.177785         1.152883        -0.893281
 C         3.396382         0.707141         0.028100
 O         4.712706         1.281554        -0.004511
 C         2.317311         0.221476         1.076064
 H         3.912571        -2.516124         1.361517
 H         4.121029        -2.299573        -0.444491
 H         5.223256        -1.567847         0.837692
 H        -0.507504        -0.394327         0.973787
 H        -0.572002         0.790316        -0.238304
 H        -0.418953        -0.957800        -0.706001
 H         2.307098         1.019796        -1.944988
 H         1.774705         2.089859        -0.440812
 H         4.777575         2.203310         0.236650
 H         1.910674         0.720550         2.029106
