19
Iteration:  4711charge 0 multiplicity 1
 C         4.379423        -1.767739         0.585317
 C         3.147225        -0.905209         0.311572
 O         2.046365        -1.330059        -0.430249
 C         1.390252         0.014586        -0.171892
 C        -0.103078         0.097314         0.051858
 C         2.247775         0.880705        -1.106727
 C         3.369651         0.625850        -0.051413
 O         4.528093         1.338717         0.161838
 C         2.362972         0.261219         1.021127
 H         4.067916        -2.545355         1.339491
 H         4.824280        -2.259337        -0.265649
 H         5.228006        -1.290380         1.207895
 H        -0.430181        -0.291732         1.102773
 H        -0.521446         1.126554        -0.033826
 H        -0.702892        -0.480620        -0.644890
 H         2.155235         0.621602        -2.142153
 H         2.202288         1.956751        -0.847724
 H         5.092118         1.430569        -0.591471
 H         2.088921         0.676630         1.954633
