19
Iteration:  1162charge 0 multiplicity 1
 C         4.197165        -1.907115         0.670605
 C         3.171927        -0.807596         0.340959
 O         2.088926        -1.248221        -0.553336
 C         1.384845         0.051984        -0.163123
 C        -0.149127        -0.098415         0.039893
 C         2.324422         1.082887        -1.004670
 C         3.373447         0.616003        -0.065843
 O         4.613171         1.323398         0.039681
 C         2.402040         0.213527         1.081377
 H         3.949543        -2.670956         1.374744
 H         4.347190        -2.389850        -0.319616
 H         5.130834        -1.450039         1.116118
 H        -0.251356        -0.866947         0.858509
 H        -0.481168         0.934628         0.267738
 H        -0.664401        -0.666371        -0.806468
 H         2.438794         0.854273        -2.126507
 H         2.051292         2.090887        -0.718009
 H         4.403193         2.261239         0.046078
 H         2.120764         0.452687         2.188808
