19
Iteration:   890charge 0 multiplicity 1
 C         4.348734        -1.807660         0.586424
 C         3.173318        -0.790902         0.313149
 O         2.098200        -1.401361        -0.461548
 C         1.407004        -0.048197        -0.180108
 C        -0.138972         0.063997         0.025065
 C         2.240648         1.039423        -0.986998
 C         3.335036         0.700726        -0.076849
 O         4.638283         1.251321         0.060208
 C         2.271492         0.183623         1.091072
 H         3.889474        -2.747342         0.949187
 H         4.995118        -2.069539        -0.235650
 H         5.084147        -1.385874         1.328113
 H        -0.478470        -0.915144         0.239670
 H        -0.364767         0.731727         0.838434
 H        -0.654096         0.436910        -0.876064
 H         2.362818         1.000700        -2.084876
 H         1.827802         1.999872        -0.820343
 H         4.585040         2.199639         0.257920
 H         2.055671         0.612664         2.020814
