19
Iteration:   629charge 0 multiplicity 1
 C         4.195315        -1.760237         0.639838
 C         3.176799        -0.848581         0.214134
 O         2.092737        -1.263533        -0.580644
 C         1.410740        -0.029608        -0.102332
 C        -0.172364        -0.075949        -0.009268
 C         2.322007         1.074792        -0.871604
 C         3.344630         0.736789         0.051105
 O         4.593307         1.217170        -0.051128
 C         2.420966         0.219155         1.111007
 H         3.781697        -2.393213         1.403242
 H         4.659700        -2.355538        -0.107948
 H         5.077483        -1.218085         1.000485
 H        -0.416984        -0.685497         0.861818
 H        -0.577432         0.977240        -0.007023
 H        -0.583921        -0.741475        -0.806401
 H         2.472221         0.812587        -1.934131
 H         1.883970         2.034224        -1.000475
 H         4.774768         2.001332         0.498169
 H         2.306966         0.080056         2.255618
