19
Iteration:  2447charge 0 multiplicity 1
 C         4.227143        -1.689844         0.638704
 C         3.125785        -0.819746         0.361069
 O         2.036264        -1.269904        -0.407154
 C         1.483313        -0.024524        -0.151750
 C        -0.123469        -0.041795        -0.063298
 C         2.288407         0.973108        -0.930983
 C         3.370904         0.663597        -0.038894
 O         4.667212         1.189383        -0.115189
 C         2.338119         0.222461         1.094282
 H         3.843171        -2.654431         1.037334
 H         4.708056        -1.818731        -0.346295
 H         5.022069        -1.298226         1.298924
 H        -0.592522        -0.715442         0.806713
 H        -0.074418         1.053438         0.348714
 H        -0.816109        -0.041198        -0.891034
 H         2.434312         0.613658        -1.916071
 H         1.827851         1.924667        -0.807159
 H         4.808233         2.007821         0.342832
 H         1.796820         0.376720         2.026968
