19
Iteration:  2702
 C         4.201978        -1.851797         0.683575
 C         3.201276        -0.786255         0.327941
 O         2.018053        -1.287249        -0.400395
 C         1.390118        -0.007752        -0.073400
 C        -0.087523        -0.067203        -0.087286
 C         2.165642         1.078342        -1.010915
 C         3.360652         0.697776        -0.141163
 O         4.673417         1.217626        -0.013881
 C         2.479084         0.269861         1.051432
 H         3.716196        -2.798723         1.008593
 H         4.924840        -2.048512        -0.137334
 H         4.679713        -1.564281         1.604843
 H        -0.355570        -0.818977         0.633195
 H        -0.555826         0.832807         0.198489
 H        -0.612100        -0.585334        -0.974878
 H         2.227219         1.014380        -2.112480
 H         1.861060         2.072963        -0.645741
 H         4.738064         2.135870         0.358329
 H         2.512236         0.442727         2.146571
