19
Iteration:  1126charge 0 multiplicity 1
 C         4.233122        -1.738094         0.648299
 C         3.202080        -0.824262         0.195163
 O         1.993488        -1.323897        -0.456981
 C         1.391263        -0.124484        -0.002528
 C        -0.105673        -0.005577        -0.196290
 C         2.143924         0.970127        -0.891443
 C         3.399886         0.709889        -0.099355
 O         4.671190         1.212511         0.061029
 C         2.520560         0.288627         1.128009
 H         3.683297        -2.563851         1.225723
 H         4.793642        -2.087042        -0.164974
 H         5.023408        -1.181526         1.133222
 H        -0.718366        -0.778792         0.205356
 H        -0.585092         0.806636         0.491770
 H        -0.286667         0.353358        -1.202001
 H         2.154246         0.905169        -1.980094
 H         1.554338         1.925853        -0.678274
 H         4.467378         2.129059         0.292504
 H         2.593917         0.513148         2.088102
