19
Iteration:  3424charge 0 multiplicity 1
 C         4.246495        -1.826230         0.778639
 C         3.165070        -0.784308         0.270459
 O         2.013638        -1.329173        -0.423460
 C         1.418464         0.015089        -0.118610
 C        -0.081922        -0.007183        -0.073418
 C         2.204345         1.042397        -1.052029
 C         3.362284         0.591260        -0.110045
 O         4.594860         1.261131         0.011048
 C         2.471875         0.269229         1.074348
 H         3.871170        -2.701268         1.359146
 H         4.620331        -2.239581        -0.180669
 H         5.078946        -1.348430         1.309624
 H        -0.323936        -0.567788         0.845796
 H        -0.570404         0.909157        -0.014800
 H        -0.548153        -0.543400        -0.985739
 H         2.211656         0.753027        -2.147716
 H         2.131367         2.172728        -0.977330
 H         4.595419         2.113570         0.412605
 H         2.488203         0.499665         2.200745
