19
Iteration:  4237charge 0 multiplicity 1
 C         4.345508        -1.741473         0.655607
 C         3.243468        -0.861554         0.354565
 O         1.951462        -1.388196        -0.314983
 C         1.381516        -0.047700        -0.141537
 C        -0.127407         0.067415        -0.043942
 C         2.358039         1.000732        -1.111678
 C         3.295558         0.660300        -0.078987
 O         4.558092         1.344117        -0.021999
 C         2.426147         0.182101         1.059702
 H         4.062474        -2.746899         1.091820
 H         4.922502        -2.043464        -0.269181
 H         4.948809        -1.512375         1.496294
 H        -0.677735        -0.905275         0.287713
 H        -0.515418         0.977619         0.452838
 H        -0.545555         0.161729        -1.065659
 H         2.539512         0.535123        -2.120922
 H         1.911001         2.026032        -1.177573
 H         4.674560         1.951465         0.764560
 H         2.181828         0.705159         2.065518
