19
Iteration:  4625charge 0 multiplicity 1
 C         4.255075        -1.832654         0.803479
 C         3.187216        -0.910040         0.288268
 O         2.087517        -1.359434        -0.443906
 C         1.374434         0.004300        -0.108090
 C        -0.098333         0.019855        -0.084005
 C         2.244148         1.155897        -0.929116
 C         3.337967         0.729479         0.039395
 O         4.563143         1.337327        -0.218007
 C         2.390700         0.176801         1.069811
 H         3.817717        -2.773444         1.288177
 H         4.848038        -2.183482         0.006925
 H         4.937371        -1.197689         1.472064
 H        -0.319597        -0.990783         0.435466
 H        -0.551133         0.820241         0.528094
 H        -0.405745        -0.136963        -1.042079
 H         2.169678         0.951714        -1.983854
 H         1.788179         2.137373        -0.657577
 H         5.457792         0.937148        -0.066231
 H         2.279870         0.237455         2.102387
