19
Iteration:  4466charge 0 multiplicity 1
 C         4.284075        -1.788297         0.809627
 C         3.163167        -0.800381         0.223575
 O         2.033647        -1.284636        -0.462105
 C         1.390242        -0.035531        -0.165397
 C        -0.056871        -0.032275        -0.034369
 C         2.183740         1.085884        -0.943987
 C         3.350995         0.656635        -0.049709
 O         4.610342         1.233608        -0.033661
 C         2.413714         0.201368         1.071463
 H         3.923006        -2.717329         1.380680
 H         5.146816        -2.248112         0.110301
 H         4.745669        -1.087302         1.493478
 H        -0.341597        -0.717953         0.817856
 H        -0.422952         1.002557         0.039456
 H        -0.422568        -0.523162        -1.034308
 H         2.265720         0.828251        -2.016249
 H         1.985419         2.151386        -0.791998
 H         4.593417         2.026593        -0.637687
 H         2.204086         0.215814         2.092855
