19
Iteration:  1201charge 0 multiplicity 1
 C         4.191529        -1.807907         0.640407
 C         3.229881        -0.825044         0.287970
 O         2.014998        -1.310072        -0.493311
 C         1.417417         0.008755        -0.138825
 C        -0.064885        -0.069096         0.033240
 C         2.210114         1.098706        -1.094297
 C         3.395195         0.771888        -0.094423
 O         4.602395         1.265633         0.092398
 C         2.440112         0.158557         1.068629
 H         3.763048        -2.581405         1.418815
 H         4.376280        -2.480831        -0.236585
 H         5.083710        -1.390767         1.150622
 H        -0.271930        -0.310704         1.050046
 H        -0.670415         0.827366        -0.263350
 H        -0.522858        -0.767136        -0.607342
 H         2.312771         0.767363        -2.087775
 H         2.029404         2.226497        -0.968042
 H         4.540456         1.823022         0.895824
 H         2.382650         0.135324         2.081071
