19
Iteration:  4441
 C         4.310076        -1.706725         0.742536
 C         3.120799        -0.807919         0.373178
 O         2.071710        -1.293723        -0.506214
 C         1.376451        -0.038473        -0.131715
 C        -0.183161         0.011302         0.006872
 C         2.311055         0.961693        -1.103686
 C         3.376194         0.608831        -0.055008
 O         4.635252         1.264321        -0.039903
 C         2.365211         0.186800         1.128760
 H         4.003180        -2.735784         1.111641
 H         4.786281        -1.989426        -0.200293
 H         5.053982        -1.204193         1.403183
 H        -0.484902        -0.915778         0.646124
 H        -0.427044         0.982916         0.460780
 H        -0.601800        -0.086486        -0.960702
 H         2.340116         0.578412        -2.118722
 H         2.014480         2.047220        -1.082261
 H         4.526214         2.208310         0.254244
 H         2.091742         0.558974         2.146985
