19
Iteration:   653
 C         4.194955        -1.866650         0.769057
 C         3.220285        -0.792644         0.369940
 O         2.092147        -1.203851        -0.605000
 C         1.382679         0.045209        -0.159243
 C        -0.066991        -0.144339         0.026032
 C         2.103878         1.120250        -0.926291
 C         3.428868         0.662695        -0.105999
 O         4.730381         1.244357        -0.042634
 C         2.311497         0.158345         1.075975
 H         3.610800        -2.606149         1.172530
 H         4.569636        -2.272140        -0.218442
 H         5.156837        -1.670762         1.331613
 H        -0.127428        -1.009705         0.626822
 H        -0.476651         0.734146         0.429858
 H        -0.606453        -0.413952        -0.913958
 H         2.006492         1.230377        -1.988539
 H         1.720819         2.072891        -0.613910
 H         4.681708         2.195879         0.263624
 H         2.140987         0.462890         2.127832
