19
Iteration:   941charge 0 multiplicity 1
 C         4.334571        -1.707322         0.562418
 C         3.159509        -0.889064         0.201368
 O         1.894652        -1.287958        -0.344149
 C         1.376629         0.024810        -0.122783
 C        -0.180181        -0.138552        -0.128079
 C         2.245947         1.075349        -0.937009
 C         3.401578         0.677980        -0.017394
 O         4.718756         1.241264         0.090159
 C         2.443377         0.173963         1.039655
 H         4.119679        -2.595603         1.277405
 H         4.817180        -2.181963        -0.288729
 H         5.106737        -1.114514         1.037300
 H        -0.495085        -0.946352         0.559131
 H        -0.725378         0.818400         0.257779
 H        -0.441252        -0.101234        -1.172782
 H         2.278109         0.973031        -2.039734
 H         1.974891         2.164387        -0.665466
 H         4.576800         2.156838         0.342204
 H         2.326713         0.525943         2.039553
