19
Iteration:  2662charge 0 multiplicity 1
 C         4.346545        -1.741463         0.581584
 C         3.124876        -0.802608         0.317403
 O         1.966005        -1.333649        -0.336047
 C         1.403729        -0.009446        -0.105227
 C        -0.102510         0.107791        -0.104942
 C         2.253245         0.916245        -1.036402
 C         3.362760         0.587943         0.001790
 O         4.618090         1.245682         0.022580
 C         2.415713         0.233445         1.062466
 H         3.959715        -2.787777         0.668933
 H         4.890442        -1.688230        -0.384981
 H         4.988711        -1.334948         1.357716
 H        -0.491951        -0.467723         0.840880
 H        -0.359420         1.173412         0.054776
 H        -0.462704        -0.321813        -1.046931
 H         2.398937         0.587885        -2.077676
 H         1.763331         1.902921        -0.980726
 H         4.444273         2.156615         0.266880
 H         2.599146         0.243075         2.179870
