19
Iteration:  1743
 C         4.304096        -1.805309         0.723639
 C         3.207140        -0.825065         0.305158
 O         2.024344        -1.246021        -0.486951
 C         1.375710        -0.016738        -0.067367
 C        -0.095746        -0.027536        -0.038784
 C         2.165262         1.042549        -1.039129
 C         3.321200         0.664514        -0.020954
 O         4.690806         1.220739        -0.059608
 C         2.392581         0.222989         1.068998
 H         3.952559        -2.522738         1.445374
 H         4.624729        -2.492248        -0.139986
 H         5.124030        -1.208893         1.146116
 H        -0.536159        -0.618100         0.739042
 H        -0.482887         1.013688         0.053620
 H        -0.581655        -0.544815        -0.947711
 H         2.413387         0.764181        -2.057715
 H         1.890484         2.114834        -0.879270
 H         4.758670         2.015702         0.526780
 H         2.085146         0.381759         2.131800
