19
Iteration:  1457
 C         4.286465        -1.678151         0.586686
 C         3.126701        -0.808569         0.412155
 O         2.044923        -1.282152        -0.478931
 C         1.418654        -0.043983        -0.164407
 C        -0.148833        -0.022400        -0.028372
 C         2.244182         1.043413        -0.967513
 C         3.385067         0.671105         0.029365
 O         4.737963         1.122297        -0.040934
 C         2.233877         0.231884         1.133251
 H         4.171051        -2.754291         0.959848
 H         4.817623        -1.949368        -0.445881
 H         5.040188        -1.045873         1.123998
 H        -0.247461        -0.885780         0.649018
 H        -0.399049         0.948064         0.294193
 H        -0.616380        -0.181300        -1.051769
 H         2.481272         0.679271        -2.013237
 H         1.909198         2.040008        -0.854660
 H         4.599519         2.092124        -0.062794
 H         1.896312         0.453475         2.166222
