19
Iteration:  2022charge 0 multiplicity 1
 C         4.314083        -1.814049         0.748477
 C         3.205175        -0.824746         0.292463
 O         1.980176        -1.264683        -0.464201
 C         1.403581         0.024874        -0.161520
 C        -0.023976         0.051954         0.009639
 C         2.160536         0.976062        -1.018452
 C         3.371217         0.641079        -0.135972
 O         4.638340         1.271830         0.019945
 C         2.368771         0.163947         1.053872
 H         3.727409        -2.589723         1.339507
 H         4.677186        -2.406274        -0.110022
 H         5.108494        -1.217533         1.167715
 H        -0.293512        -0.770774         0.787387
 H        -0.338436         1.082064         0.276534
 H        -0.380339        -0.361535        -0.956898
 H         2.239359         0.698238        -2.118638
 H         1.778187         1.984526        -0.830868
 H         4.364926         2.065577         0.458839
 H         2.360051         0.336385         2.085248
