19
Iteration:   202charge 0 multiplicity 1
 C         4.348346        -1.761090         0.538718
 C         3.107196        -0.871669         0.380235
 O         2.051634        -1.311408        -0.464217
 C         1.408707        -0.014491        -0.097833
 C        -0.051723         0.001164        -0.130059
 C         2.236494         1.068589        -0.927216
 C         3.326230         0.594273         0.040350
 O         4.595636         1.332480         0.018396
 C         2.301613         0.194105         1.122441
 H         3.985335        -2.517957         1.289182
 H         4.651692        -2.233583        -0.423525
 H         5.075378        -1.054613         0.994566
 H        -0.612582        -0.681311         0.559422
 H        -0.390451         1.025166         0.261712
 H        -0.391970        -0.108410        -1.184046
 H         2.409039         0.951549        -2.057515
 H         2.016372         2.109549        -0.625971
 H         5.186810         0.714899        -0.507133
 H         2.317302         0.492832         2.171013
