19
Iteration:   163charge 0 multiplicity 1
 C         4.131553        -1.795851         0.684883
 C         3.224281        -0.771419         0.161643
 O         2.037526        -1.279856        -0.496801
 C         1.369030         0.002840        -0.062075
 C        -0.097474        -0.106536        -0.028322
 C         2.168456         1.082302        -1.013930
 C         3.423539         0.642801        -0.102508
 O         4.664030         1.310239         0.167827
 C         2.437100         0.198856         1.080046
 H         3.644340        -2.520556         1.292801
 H         4.817986        -2.326713        -0.093738
 H         4.855142        -1.357951         1.324963
 H        -0.388742        -1.033859         0.497389
 H        -0.522199         0.830993         0.413425
 H        -0.400211        -0.301788        -1.026520
 H         2.052158         0.923625        -2.081244
 H         1.957636         2.098016        -0.689455
 H         5.106625         1.431132        -0.687707
 H         2.505311         0.305614         2.138449
