19
Iteration:  3884charge 0 multiplicity 1
 C         4.303527        -1.668693         0.688065
 C         3.106402        -0.789952         0.380452
 O         2.083315        -1.388046        -0.392378
 C         1.421299        -0.061001        -0.178694
 C        -0.181406         0.026445        -0.045868
 C         2.234526         0.987531        -1.034370
 C         3.350540         0.655615        -0.066593
 O         4.585095         1.179927        -0.058620
 C         2.481885         0.255542         1.053599
 H         4.098885        -2.635240         1.234202
 H         4.866002        -1.901583        -0.239980
 H         4.907414        -1.113319         1.541590
 H        -0.699058        -0.792807         0.437782
 H        -0.439507         0.978785         0.508106
 H        -0.436129        -0.089503        -1.174576
 H         2.417301         0.938354        -2.175625
 H         1.688915         1.923828        -0.612423
 H         4.801458         1.933173         0.525819
 H         2.230519         0.775516         2.064596
