19
Iteration:  4956charge 0 multiplicity 1
 C         4.209191        -1.871815         0.579594
 C         3.167353        -0.789288         0.333064
 O         1.998223        -1.253337        -0.385861
 C         1.399655         0.034397        -0.070429
 C        -0.123282        -0.070710        -0.142273
 C         2.211683         1.016998        -0.983388
 C         3.360092         0.776298        -0.048313
 O         4.672611         1.346832         0.073879
 C         2.500665         0.207691         1.101789
 H         3.897731        -2.397931         1.494247
 H         4.202968        -2.734800        -0.070144
 H         5.214058        -1.592800         0.766115
 H        -0.228642        -1.043941         0.277720
 H        -0.926053         0.568632         0.221508
 H        -0.425823        -0.419450        -1.243162
 H         2.024724         0.845445        -2.039610
 H         1.826122         1.988471        -0.767814
 H         5.191274         0.794521        -0.586639
 H         2.518663         0.435886         2.166993
