19
Iteration:  2372charge 0 multiplicity 1
 C         4.195040        -1.875829         0.696438
 C         3.162982        -0.855932         0.345575
 O         2.066973        -1.321865        -0.450440
 C         1.451826         0.015748        -0.180346
 C        -0.070109        -0.037521         0.025146
 C         2.241385         1.093719        -1.010742
 C         3.342216         0.658158         0.047948
 O         4.649594         1.306127        -0.119464
 C         2.348898         0.255781         1.079039
 H         3.871921        -2.515466         1.545886
 H         4.232184        -2.516589        -0.203199
 H         5.282588        -1.677228         0.888160
 H        -0.389407        -0.705149         0.800899
 H        -0.350538         1.040074         0.205446
 H        -0.472123        -0.356048        -0.908770
 H         2.612516         0.810130        -2.018479
 H         1.976691         2.125762        -0.859308
 H         4.335047         2.263047        -0.036738
 H         2.103170         0.298589         2.122741
