19
Iteration:  1096
 C         4.478903        -1.795097         0.645807
 C         3.120115        -0.884102         0.358367
 O         1.986151        -1.306425        -0.415763
 C         1.413098         0.100310        -0.097662
 C        -0.096345         0.044896        -0.162324
 C         2.238408         1.093174        -0.968807
 C         3.341238         0.609569         0.009394
 O         4.578335         1.224773        -0.104593
 C         2.327095         0.107728         1.148860
 H         4.298368        -2.752333         1.159667
 H         5.063740        -1.840137        -0.275113
 H         5.167205        -1.135946         1.280090
 H        -0.522873        -0.957674         0.097100
 H        -0.470301         0.732278         0.683242
 H        -0.647193         0.215506        -1.134957
 H         2.426424         0.879466        -2.082771
 H         1.890104         2.128554        -0.895222
 H         4.692532         1.907211         0.608167
 H         1.927398         0.370100         2.137220
