19
Iteration:  3065charge 0 multiplicity 1
 C         4.189699        -1.776264         0.792087
 C         3.109936        -0.870317         0.309814
 O         1.997591        -1.272268        -0.469739
 C         1.370750         0.041101        -0.159453
 C        -0.065932        -0.118720        -0.022272
 C         2.233865         1.070941        -0.908615
 C         3.381629         0.631175        -0.086024
 O         4.673758         1.240354        -0.112387
 C         2.478831         0.234469         1.030998
 H         3.776357        -2.586693         1.378112
 H         4.845317        -2.131608         0.014398
 H         4.876218        -1.176853         1.504959
 H        -0.560107        -0.815149         0.739222
 H        -0.540257         0.871396         0.120668
 H        -0.265275        -0.429428        -1.169699
 H         2.439585         0.990505        -2.029644
 H         1.985438         2.100011        -0.567307
 H         4.568103         2.200370         0.173750
 H         2.478205         0.498693         2.120563
