19
Iteration:  2560charge 0 multiplicity 1
 C         4.090189        -1.863299         0.748497
 C         3.190443        -0.783174         0.324439
 O         2.153475        -1.289612        -0.522662
 C         1.374809         0.048302        -0.127432
 C        -0.104717        -0.096621         0.043845
 C         2.241343         1.061170        -0.921911
 C         3.397062         0.681693        -0.059879
 O         4.638656         1.267882        -0.144584
 C         2.395857         0.194932         1.089227
 H         3.812651        -2.289884         1.692691
 H         4.126176        -2.515369        -0.130612
 H         5.108228        -1.443413         0.956868
 H        -0.468417        -0.931730         0.529710
 H        -0.618005         0.829108         0.293811
 H        -0.332320        -0.425490        -1.094085
 H         2.489917         0.980762        -1.951991
 H         1.999063         2.080049        -0.729275
 H         4.625716         2.151862         0.313909
 H         2.299289         0.558852         2.083889
