19
Iteration:  3135charge 0 multiplicity 1
 C         4.253544        -1.823983         0.768909
 C         3.179807        -0.902083         0.229102
 O         1.952525        -1.300238        -0.355602
 C         1.454779         0.114108        -0.094845
 C        -0.090203        -0.051538        -0.031427
 C         2.228424         0.993782        -1.109706
 C         3.425873         0.603236        -0.106546
 O         4.559585         1.304418         0.042668
 C         2.475328         0.230379         0.988465
 H         3.939309        -2.617601         1.497999
 H         4.746574        -2.204040        -0.171739
 H         5.035853        -1.221760         1.169322
 H        -0.430885        -0.848811         0.616992
 H        -0.410039         0.924685         0.553551
 H        -0.484942        -0.075649        -0.997301
 H         2.447171         0.696630        -2.200970
 H         1.931769         2.100367        -0.993293
 H         4.239948         2.234289         0.231147
 H         2.390358         0.537957         2.031121
