19
Iteration:  1107
 C         4.378431        -1.722455         0.642001
 C         3.211623        -0.916661         0.345651
 O         2.049206        -1.322497        -0.382239
 C         1.313527         0.067706        -0.126552
 C        -0.182607         0.048925        -0.186173
 C         2.194463         1.051230        -0.901015
 C         3.362095         0.632981        -0.076457
 O         4.618464         1.221702        -0.050566
 C         2.429370         0.125666         1.109705
 H         4.125166        -2.676692         1.106444
 H         4.907735        -2.012031        -0.284227
 H         5.057558        -1.124412         1.342558
 H        -0.525976        -0.969408         0.109676
 H        -0.679232         0.810296         0.524813
 H        -0.429357         0.478581        -1.202268
 H         2.103456         0.823165        -2.017379
 H         2.096943         2.123268        -0.680526
 H         4.562181         1.955537         0.596161
 H         2.346683         0.312540         2.199519
