19
Iteration:  3255charge 0 multiplicity 1
 C         4.169404        -1.907496         0.783613
 C         3.167685        -0.804560         0.209233
 O         2.036268        -1.324046        -0.396873
 C         1.433671         0.002811        -0.182263
 C        -0.049893        -0.081567        -0.030839
 C         2.206379         1.017344        -1.070346
 C         3.373722         0.726869        -0.053914
 O         4.663193         1.296432        -0.054936
 C         2.415695         0.330125         1.135229
 H         3.481435        -2.549346         1.320819
 H         4.641980        -2.385713        -0.065446
 H         4.914161        -1.463036         1.411654
 H        -0.357160        -0.830256         0.700786
 H        -0.425312         0.978200         0.316341
 H        -0.368228        -0.212454        -1.024684
 H         2.443717         0.699148        -2.096325
 H         1.520307         1.836742        -0.913022
 H         4.621912         2.192073         0.264927
 H         2.471387         0.339949         2.277373
