19
Iteration:  4365
 C         4.233946        -1.747337         0.646743
 C         3.173454        -0.762673         0.409731
 O         1.986119        -1.389055        -0.474972
 C         1.400718        -0.031890        -0.040802
 C        -0.038850        -0.017400        -0.117131
 C         2.242180         0.980093        -1.012477
 C         3.361866         0.650310        -0.019424
 O         4.636900         1.327113        -0.046103
 C         2.404684         0.201552         1.114747
 H         3.973878        -2.291298         1.637463
 H         4.320812        -2.492977        -0.211458
 H         5.283757        -1.255089         0.592283
 H        -0.457292        -0.896967         0.569734
 H        -0.396156         1.007475         0.202512
 H        -0.256598        -0.315540        -1.129117
 H         2.436182         0.620046        -2.008439
 H         1.813101         2.004995        -0.917310
 H         4.486690         2.249410         0.136981
 H         2.222362         0.649683         2.147170
