19
Iteration:   699charge 0 multiplicity 1
 C         4.241077        -1.805587         0.643452
 C         3.272736        -0.808440         0.272558
 O         2.002376        -1.262091        -0.485799
 C         1.303810         0.007792        -0.071879
 C        -0.177394        -0.027895        -0.037437
 C         2.227739         0.971278        -0.956333
 C         3.441566         0.645876        -0.098371
 O         4.666280         1.360988         0.030093
 C         2.439592         0.133908         1.114494
 H         3.707114        -2.683362         1.025064
 H         5.006267        -2.087029        -0.156474
 H         4.874955        -1.437070         1.484490
 H        -0.428174        -1.084228         0.088805
 H        -0.502435         0.604403         0.750617
 H        -0.590543         0.228061        -1.019666
 H         2.246291         0.627916        -1.964338
 H         1.931979         2.034418        -1.080295
 H         4.423434         2.317029         0.049919
 H         2.377453         0.062130         2.173242
