19
Iteration:  1470charge 0 multiplicity 1
 C         4.323955        -1.685594         0.659648
 C         3.152388        -0.789834         0.294550
 O         2.023480        -1.286439        -0.475889
 C         1.361537         0.012684        -0.185472
 C        -0.138179        -0.060681        -0.015131
 C         2.338527         1.028694        -0.974593
 C         3.354455         0.639959        -0.008356
 O         4.633555         1.128733        -0.036418
 C         2.374778         0.186346         1.126054
 H         3.840339        -2.518592         1.215900
 H         4.975804        -1.841037        -0.314950
 H         4.948885        -1.253232         1.444645
 H        -0.703016        -0.821887         0.580194
 H        -0.542857         0.845855         0.575685
 H        -0.696215        -0.048306        -1.029518
 H         2.494668         1.004897        -2.069845
 H         1.923981         2.067251        -0.769237
 H         4.705095         2.089953         0.094008
 H         2.065637         0.572825         2.162896
