19
Iteration:  1796
 C         4.357318        -1.746338         0.522953
 C         3.195551        -0.799305         0.379652
 O         1.978122        -1.346958        -0.341308
 C         1.375596        -0.002643        -0.089185
 C        -0.121378         0.027696        -0.143946
 C         2.241018         1.007425        -0.998948
 C         3.319266         0.697589        -0.025623
 O         4.659824         1.165637         0.025425
 C         2.375394         0.238785         1.101958
 H         4.153353        -2.290676         1.435233
 H         4.429748        -2.316083        -0.397836
 H         5.227063        -1.217208         0.833054
 H        -0.517548        -0.657121         0.604962
 H        -0.537674         1.035313         0.013939
 H        -0.395021        -0.418781        -1.172211
 H         2.449929         0.665275        -2.054929
 H         1.741804         1.992394        -1.010067
 H         4.798465         2.142636         0.143338
 H         2.259507         0.444908         2.161884
