19
Iteration:  1668charge 0 multiplicity 1
 C         4.174033        -1.782655         0.692348
 C         3.159464        -0.790244         0.325486
 O         2.057126        -1.348742        -0.434112
 C         1.404023         0.011882        -0.118280
 C        -0.064091        -0.007153        -0.006264
 C         2.201971         1.000992        -1.052109
 C         3.396982         0.604015        -0.146354
 O         4.623781         1.304965         0.031286
 C         2.505480         0.208143         1.090098
 H         3.549913        -2.588377         0.923923
 H         4.828397        -2.235506        -0.112635
 H         4.765268        -1.341211         1.526957
 H        -0.515265        -0.885599         0.352002
 H        -0.507414         0.893867         0.422065
 H        -0.401693         0.033071        -0.991444
 H         2.060977         0.649724        -2.008705
 H         1.851689         2.024417        -0.823986
 H         4.432323         2.246453         0.056380
 H         2.445258         0.524302         2.139307
