19
Iteration:  1433charge 0 multiplicity 1
 C         4.292559        -1.717573         0.519888
 C         3.181272        -0.783851         0.337146
 O         2.044328        -1.292953        -0.406140
 C         1.417239         0.050993        -0.080594
 C        -0.143604        -0.025976        -0.111931
 C         2.213334         1.006327        -1.000859
 C         3.337572         0.684150        -0.020512
 O         4.607295         1.102890         0.069201
 C         2.435458         0.243307         1.155455
 H         3.921854        -2.614199         1.121492
 H         4.649697        -2.184252        -0.429977
 H         5.207288        -1.218111         0.961785
 H        -0.482201        -0.664337         0.698132
 H        -0.588928         0.910850        -0.153419
 H        -0.272865        -0.399351        -1.108227
 H         2.314566         0.672174        -2.056349
 H         1.878272         1.999541        -0.886193
 H         4.613960         2.091843        -0.026167
 H         2.257337         0.518118         2.154076
