19
Iteration:  3811charge 0 multiplicity 1
 C         4.185726        -1.877625         0.735867
 C         3.186335        -0.763287         0.405366
 O         2.122328        -1.277371        -0.416108
 C         1.396633        -0.049419        -0.070395
 C        -0.061550        -0.044601        -0.039540
 C         2.218506         0.998543        -1.019092
 C         3.403778         0.689797        -0.121580
 O         4.641325         1.312112        -0.079212
 C         2.332625         0.228112         1.006442
 H         3.765638        -2.560001         1.431066
 H         4.357993        -2.392594        -0.191975
 H         5.111609        -1.563324         1.278669
 H        -0.303724        -0.853307         0.751476
 H        -0.456557         1.021393         0.307004
 H        -0.502408        -0.530696        -0.880315
 H         2.347801         0.956044        -2.090158
 H         1.889827         2.017154        -0.812672
 H         4.425835         2.296068        -0.120661
 H         1.939998         0.440304         1.943323
