19
Iteration:  3618charge 0 multiplicity 1
 C         4.235963        -1.750823         0.734957
 C         3.220570        -0.825510         0.277421
 O         2.112811        -1.373224        -0.447031
 C         1.429587         0.118657        -0.135116
 C        -0.125654         0.052366        -0.009246
 C         2.235031         0.959733        -1.070698
 C         3.359923         0.622930        -0.073857
 O         4.548138         1.291235        -0.008212
 C         2.431424         0.172329         1.060647
 H         3.749535        -2.362713         1.514131
 H         4.528938        -2.419880        -0.090079
 H         5.094246        -1.263767         1.318680
 H        -0.323159        -0.725269         0.763952
 H        -0.657038         0.947413         0.206524
 H        -0.691182        -0.405133        -0.822605
 H         2.173378         0.433068        -2.041586
 H         1.931640         1.993426        -1.239701
 H         4.621181         2.080451         0.558746
 H         2.291708         0.402475         2.157588
