19
Iteration:  2765
 C         4.200371        -1.792230         0.772949
 C         3.212404        -0.872091         0.181582
 O         2.050478        -1.306538        -0.505014
 C         1.395948         0.001388        -0.097613
 C        -0.071575        -0.044674        -0.014477
 C         2.135239         1.034722        -0.963329
 C         3.382438         0.718963        -0.124506
 O         4.680075         1.210805         0.054403
 C         2.403342         0.241729         1.026915
 H         3.799505        -2.259869         1.696859
 H         4.516077        -2.606292         0.092456
 H         5.101535        -1.181964         0.984015
 H        -0.334334        -0.825441         0.663867
 H        -0.467006         0.923982         0.390207
 H        -0.457703        -0.120992        -1.050461
 H         2.032975         0.868304        -2.092112
 H         1.932320         2.119911        -0.647414
 H         4.491927         2.174629         0.165625
 H         2.532425         0.543295         2.079859
