19
Iteration:  2017charge 0 multiplicity 1
 C         4.337484        -1.841366         0.709510
 C         3.177115        -0.836284         0.287371
 O         2.009790        -1.260035        -0.437829
 C         1.398692        -0.000469        -0.188630
 C        -0.041340         0.070582         0.004917
 C         2.188867         0.938048        -1.000765
 C         3.358639         0.687684        -0.071921
 O         4.612025         1.256563        -0.007339
 C         2.363951         0.174761         1.039840
 H         3.818819        -2.506853         1.335920
 H         4.782504        -2.482285        -0.059339
 H         5.148512        -1.190936         1.119500
 H        -0.280514        -0.629140         0.750171
 H        -0.438903         1.042433         0.243330
 H        -0.479680        -0.295833        -0.926058
 H         2.226444         0.780071        -2.050910
 H         1.964579         2.035253        -0.925482
 H         4.395302         2.075435         0.558753
 H         2.244320         0.473166         2.164948
