19
Iteration:  2595charge 0 multiplicity 1
 C         4.257352        -1.787138         0.759680
 C         3.162020        -0.844196         0.197893
 O         1.957922        -1.333575        -0.439234
 C         1.379183         0.064743        -0.077783
 C        -0.123067        -0.045453        -0.016199
 C         2.156920         1.051099        -1.002182
 C         3.392343         0.662738        -0.143097
 O         4.674222         1.212415         0.088438
 C         2.539515         0.251116         0.987272
 H         3.970179        -2.386502         1.672284
 H         4.511642        -2.631740         0.051992
 H         5.148991        -1.226391         0.788658
 H        -0.372118        -0.959563         0.574097
 H        -0.758978         0.752242         0.270950
 H        -0.201106        -0.069998        -1.170192
 H         2.192555         0.906480        -2.091417
 H         1.709329         2.032160        -0.778159
 H         4.561353         2.189453         0.286256
 H         2.683659         0.657253         1.998942
