19
Iteration:   389charge 0 multiplicity 1
 C         4.356107        -1.738945         0.489106
 C         3.186391        -0.891772         0.370690
 O         1.954372        -1.264672        -0.477751
 C         1.370640        -0.021324        -0.051687
 C        -0.120766        -0.000431        -0.151041
 C         2.223304         0.932040        -0.943129
 C         3.375076         0.659093        -0.060502
 O         4.611852         1.237525         0.090826
 C         2.435640         0.289235         1.146252
 H         4.322982        -2.622938         1.277305
 H         4.688637        -2.178219        -0.518118
 H         5.221695        -1.190130         0.882254
 H        -0.703885        -0.626006         0.552325
 H        -0.475725         1.011440         0.247263
 H        -0.369642        -0.165891        -1.142150
 H         2.288948         0.546480        -2.023131
 H         1.905363         1.975879        -1.007635
 H         4.531606         2.066425         0.620152
 H         2.341604         0.443726         2.167252
