19
Iteration:  4743charge 0 multiplicity 1
 C         4.346874        -1.694424         0.583946
 C         3.158166        -0.871660         0.251297
 O         1.999048        -1.378539        -0.391701
 C         1.448729        -0.081981        -0.112311
 C        -0.073725         0.178782        -0.074278
 C         2.171599         0.846175        -1.042464
 C         3.329473         0.728186        -0.021277
 O         4.517806         1.344530         0.140625
 C         2.455572         0.165851         1.067136
 H         4.102188        -2.182796         1.550514
 H         4.617561        -2.525934        -0.050749
 H         5.289151        -1.029803         0.687160
 H        -0.624338        -0.474500         0.719449
 H        -0.144683         1.233760         0.293508
 H        -0.566884         0.032594        -1.051514
 H         2.292743         0.527134        -2.076396
 H         1.873781         1.911055        -0.972410
 H         5.182110         1.073280        -0.555195
 H         2.390953         0.292111         2.114081
