19
Iteration:   419charge 0 multiplicity 1
 C         4.305197        -1.795002         0.483284
 C         3.283775        -0.718904         0.279557
 O         2.024210        -1.438056        -0.354883
 C         1.374657        -0.007950        -0.089938
 C        -0.099728         0.015669        -0.116849
 C         2.186196         1.037143        -0.974032
 C         3.337287         0.712135        -0.128543
 O         4.605894         1.209412         0.190623
 C         2.441598         0.241143         1.047252
 H         3.642146        -2.430830         1.252432
 H         4.547440        -2.193998        -0.483574
 H         5.241457        -1.461123         0.944576
 H        -0.489185        -0.627133         0.731111
 H        -0.371624         1.091611         0.105004
 H        -0.585517        -0.374200        -1.052054
 H         2.164081         0.788367        -2.057802
 H         1.723360         2.024867        -0.896927
 H         4.541135         2.117884         0.469588
 H         2.293441         0.469211         2.071137
