19
Iteration:  2682
 C         4.376529        -1.855051         0.650848
 C         3.192120        -0.821881         0.266738
 O         1.992758        -1.264016        -0.375361
 C         1.417449         0.074158        -0.048772
 C        -0.161462         0.010938        -0.070556
 C         2.138464         1.008592        -1.015782
 C         3.357630         0.562424        -0.142175
 O         4.628336         1.221490         0.076653
 C         2.519479         0.259299         1.065500
 H         3.906909        -2.867838         0.829297
 H         5.066292        -1.903784        -0.215760
 H         4.789883        -1.507293         1.563086
 H        -0.890786        -0.629739         0.454194
 H        -0.506199         1.006628        -0.054451
 H        -0.364459        -0.458458        -1.135065
 H         2.040649         0.599290        -1.983497
 H         1.879343         2.014780        -0.902878
 H         4.437635         2.185173         0.272573
 H         2.356718         0.940020         1.946488
