19
Iteration:  3677
 C         4.290705        -1.797347         0.763550
 C         3.211592        -0.817729         0.294156
 O         1.962046        -1.300111        -0.375955
 C         1.366154         0.013990        -0.077286
 C        -0.135609        -0.112042        -0.081767
 C         2.342380         1.114385        -1.048708
 C         3.414023         0.578626        -0.103949
 O         4.555348         1.224558        -0.061907
 C         2.455313         0.309343         1.061779
 H         3.809933        -2.612641         1.325797
 H         5.017266        -2.175408         0.031787
 H         4.878511        -1.210009         1.438556
 H        -0.380334        -1.089060         0.330763
 H        -0.614662         0.644824         0.604343
 H        -0.478836         0.077843        -1.203916
 H         2.226339         0.761741        -2.051323
 H         1.946636         2.105005        -0.840180
 H         4.338802         2.197381         0.008030
 H         2.374966         0.598653         2.123874
