19
Iteration:  2140
 C         4.354200        -1.695777         0.570461
 C         3.129856        -0.840368         0.291244
 O         1.940634        -1.356432        -0.363076
 C         1.405600         0.009676        -0.088536
 C        -0.083803         0.076309        -0.111045
 C         2.125543         0.914691        -0.976920
 C         3.406370         0.623712        -0.124195
 O         4.604644         1.189274         0.106535
 C         2.521313         0.255146         1.066880
 H         3.908206        -2.416955         1.376485
 H         4.758984        -2.236516        -0.333294
 H         5.104176        -1.061468         1.107538
 H        -0.714419        -0.625108         0.600111
 H        -0.326450         1.145353        -0.007152
 H        -0.391629        -0.313783        -1.056204
 H         2.267609         0.625522        -2.082312
 H         2.054479         2.022868        -0.753801
 H         4.457325         2.158871         0.181648
 H         2.576303         0.808210         2.000044
