19
Iteration:   413charge 0 multiplicity 1
 C         4.310703        -1.772427         0.496636
 C         3.311033        -0.793336         0.226732
 O         2.054370        -1.401093        -0.293552
 C         1.366245         0.020534        -0.114590
 C        -0.128811         0.059543        -0.141229
 C         2.093561         1.010533        -1.029317
 C         3.323746         0.756811        -0.088823
 O         4.648509         1.211094         0.190140
 C         2.412354         0.164513         1.085224
 H         3.934595        -2.529294         1.138440
 H         4.567803        -2.281948        -0.504813
 H         5.281519        -1.535807         0.942299
 H        -0.492786        -0.554823         0.658794
 H        -0.613855         1.000375         0.160199
 H        -0.480643        -0.333051        -1.081886
 H         2.202661         0.749154        -2.105288
 H         1.776706         2.079355        -1.027006
 H         4.671750         2.132197         0.557209
 H         2.373868         0.518639         2.167312
