19
Iteration:  4759
 C         4.365527        -1.752814         0.627113
 C         3.211412        -0.891664         0.227495
 O         1.958136        -1.414697        -0.377264
 C         1.359686        -0.018291        -0.062936
 C        -0.036542         0.079999        -0.088116
 C         2.204035         0.998168        -0.982061
 C         3.350292         0.599744        -0.078808
 O         4.581992         1.387368         0.094805
 C         2.370865         0.251719         1.079875
 H         4.336175        -2.197719         1.693906
 H         4.478792        -2.567713        -0.157613
 H         5.307318        -1.234620         0.629677
 H        -0.573929        -0.768346         0.273609
 H        -0.484831         0.939134         0.404507
 H        -0.300480         0.142078        -1.164738
 H         2.182039         0.691251        -2.054859
 H         1.782584         1.978645        -0.809515
 H         5.260940         1.145163        -0.627299
 H         2.190523         0.671440         2.128668
