19
Iteration:  1443
 C         4.325274        -1.688513         0.537755
 C         3.113525        -0.815445         0.401454
 O         2.073500        -1.297655        -0.441404
 C         1.353230         0.102751        -0.130247
 C        -0.054273        -0.030637        -0.081412
 C         2.225499         0.963580        -0.968591
 C         3.323905         0.689671         0.020258
 O         4.680192         1.118604         0.018102
 C         2.331912         0.234362         1.109942
 H         4.060236        -2.638558         1.095056
 H         4.427414        -1.922256        -0.521923
 H         5.212863        -1.326477         1.126300
 H        -0.548960        -0.729303         0.568957
 H        -0.462539         0.955768         0.090205
 H        -0.498401        -0.425118        -0.924894
 H         2.243047         0.713882        -2.038385
 H         1.808517         1.951533        -0.842995
 H         4.867253         2.075100        -0.114828
 H         2.136852         0.302059         2.129312
