19
Iteration:  3731
 C         4.305157        -1.691844         0.688734
 C         3.193524        -0.786646         0.366300
 O         2.042434        -1.270603        -0.367897
 C         1.376533        -0.086343        -0.170508
 C        -0.105924        -0.019563        -0.081030
 C         2.249094         1.005649        -1.025986
 C         3.340031         0.672470        -0.031691
 O         4.576375         1.136156        -0.049577
 C         2.399949         0.204367         1.084715
 H         4.068575        -2.540216         1.375521
 H         4.720514        -2.119132        -0.255881
 H         5.129607        -1.051369         1.004679
 H        -0.384728        -0.526369         0.824044
 H        -0.265727         1.069193        -0.072419
 H        -0.607669        -0.395381        -1.072272
 H         2.447261         0.906993        -2.092633
 H         1.748191         1.990797        -0.867323
 H         4.522302         2.106696         0.205302
 H         2.349181         0.686328         2.123878
