19
Iteration:    16charge 0 multiplicity 1
 C         4.330780        -1.771384         0.514410
 C         3.228094        -0.797219         0.171434
 O         1.958272        -1.265554        -0.469327
 C         1.422536         0.024857        -0.053617
 C        -0.057817        -0.053991        -0.099419
 C         2.136054         0.965733        -0.956855
 C         3.322223         0.738212         0.093041
 O         4.748202         1.231263         0.114104
 C         2.293908         0.241099         1.173435
 H         3.664843        -2.380895         1.213033
 H         4.922154        -2.424883        -0.147802
 H         5.267424        -1.243578         0.988541
 H        -0.455987        -0.820111         0.589194
 H        -0.664185         0.800435         0.177916
 H        -0.210852        -0.231618        -1.273750
 H         2.240479         0.667149        -2.031779
 H         1.739564         1.998493        -0.771105
 H         4.910094         1.125283        -0.870431
 H         1.906570         0.460966         2.169200
