19
Iteration:   503charge 0 multiplicity 1
 C         4.240231        -1.856289         0.772714
 C         3.263066        -0.834708         0.285688
 O         2.066219        -1.342739        -0.554766
 C         1.418931         0.050725        -0.093348
 C        -0.052053        -0.067604        -0.029999
 C         2.023691         1.181324        -0.924634
 C         3.364841         0.687255        -0.149753
 O         4.659376         1.196657         0.039767
 C         2.429950         0.222236         0.984364
 H         3.782045        -2.645971         1.223006
 H         4.793351        -2.298987        -0.083588
 H         4.968852        -1.482411         1.525824
 H        -0.383546        -0.954490         0.485036
 H        -0.499655         0.700927         0.508927
 H        -0.320257        -0.049782        -1.124493
 H         1.951113         1.292855        -1.984971
 H         1.784916         2.098194        -0.304693
 H         4.460066         2.161787         0.224287
 H         2.326219         0.479027         2.078830
