19
Iteration:   818
 C         4.160470        -1.873822         0.613735
 C         3.152556        -0.846190         0.409583
 O         2.089585        -1.268890        -0.512529
 C         1.422423        -0.068817        -0.205930
 C        -0.080455        -0.135087        -0.061728
 C         2.135341         1.110434        -0.922894
 C         3.366616         0.782332         0.006329
 O         4.756222         1.311048        -0.046293
 C         2.351102         0.183167         1.129884
 H         3.894787        -2.657989         1.234910
 H         4.404080        -2.362303        -0.362342
 H         5.110499        -1.435881         0.827183
 H        -0.259985        -0.495264         0.988876
 H        -0.429245         0.865676        -0.233755
 H        -0.594835        -0.858467        -0.760969
 H         2.192696         1.364133        -1.960809
 H         1.629830         2.028566        -0.549436
 H         4.709928         2.186131         0.355026
 H         2.449271         0.430243         2.228161
