19
Iteration:  4020charge 0 multiplicity 1
 C         4.250396        -1.729756         0.773587
 C         3.176866        -0.814762         0.312280
 O         2.032467        -1.306796        -0.383375
 C         1.384678        -0.039454        -0.099298
 C        -0.048288        -0.075913        -0.071267
 C         2.144649         1.110584        -1.040734
 C         3.357320         0.687544        -0.116882
 O         4.652141         1.167115        -0.059846
 C         2.444587         0.212741         1.031941
 H         3.967577        -2.525438         1.527270
 H         4.908423        -2.303604         0.052209
 H         4.911088        -1.020296         1.309367
 H        -0.332095        -1.119829         0.286527
 H        -0.548547         0.794546         0.369463
 H        -0.424715        -0.107469        -1.094054
 H         2.261321         1.194085        -2.129333
 H         1.647781         2.031391        -0.711143
 H         4.668919         2.032583         0.349554
 H         2.197151         0.604351         2.109183
