19
Iteration:  4006charge 0 multiplicity 1
 C         4.312342        -1.748688         0.841857
 C         3.187405        -0.803793         0.292360
 O         2.023296        -1.277175        -0.477370
 C         1.407408         0.108828        -0.092720
 C        -0.121597        -0.138156        -0.111057
 C         2.180620         1.063988        -0.957066
 C         3.362040         0.654451        -0.095999
 O         4.672453         1.204013        -0.131436
 C         2.372100         0.215838         1.109767
 H         3.802578        -2.376177         1.575446
 H         4.516181        -2.320952        -0.110099
 H         5.204919        -1.211206         1.341995
 H        -0.349892        -0.995084         0.547527
 H        -0.736261         0.711849         0.376858
 H        -0.351483        -0.358940        -1.131527
 H         2.120178         0.590618        -1.974484
 H         1.944641         2.187278        -0.803967
 H         4.720749         2.037562         0.429230
 H         2.326287         0.241796         2.092843
