19
Iteration:  3803
 C         4.202169        -1.927101         0.761511
 C         3.188321        -0.845031         0.401329
 O         2.134972        -1.299998        -0.418825
 C         1.442834        -0.057023        -0.116812
 C        -0.076201        -0.042349        -0.012182
 C         2.160653         1.035601        -1.063831
 C         3.354196         0.762682        -0.110415
 O         4.637349         1.311588        -0.055533
 C         2.368548         0.272190         1.045306
 H         3.755403        -2.684486         1.424481
 H         4.422743        -2.431650        -0.195835
 H         5.108595        -1.486288         1.067554
 H        -0.376349        -0.695861         0.878031
 H        -0.418608         0.997936         0.031964
 H        -0.462418        -0.405207        -0.946862
 H         2.230097         0.785815        -2.169002
 H         1.726104         2.037091        -0.975036
 H         4.631556         2.307292         0.073372
 H         2.077869         0.565922         2.000955
