19
Iteration:  3037charge 0 multiplicity 1
 C         4.377378        -1.673686         0.697827
 C         3.172136        -0.758559         0.236911
 O         1.913357        -1.323445        -0.377289
 C         1.333109         0.049171        -0.132354
 C        -0.154599        -0.039575        -0.097940
 C         2.145114         1.003223        -0.991130
 C         3.363170         0.652377        -0.106702
 O         4.750791         1.151635         0.027600
 C         2.458108         0.187338         1.101568
 H         3.912456        -2.448252         1.368498
 H         4.790410        -2.271971        -0.167262
 H         5.113011        -1.126624         1.214510
 H        -0.671934        -0.565267         0.657828
 H        -0.456440         1.058021        -0.141271
 H        -0.361212        -0.537628        -0.969326
 H         2.355871         0.700167        -2.002293
 H         1.937140         2.073904        -0.915421
 H         4.617288         2.078694         0.361847
 H         2.533240         0.303438         2.147798
