19
Iteration:   479charge 0 multiplicity 1
 C         4.103387        -1.770027         0.716858
 C         3.211612        -0.801527         0.179724
 O         2.071781        -1.238426        -0.567846
 C         1.408125        -0.065525        -0.100752
 C        -0.099801        -0.120359         0.005329
 C         2.201043         1.061763        -0.932604
 C         3.393784         0.746897        -0.012586
 O         4.661114         1.239662        -0.020521
 C         2.443885         0.155613         1.053681
 H         3.679398        -2.523188         1.349228
 H         4.789088        -2.379180         0.015516
 H         4.724261        -1.113254         1.424314
 H        -0.461011        -0.825844         0.709588
 H        -0.343269         0.842123         0.440366
 H        -0.604068        -0.170192        -0.959486
 H         2.349650         0.898211        -1.997794
 H         1.824501         2.049290        -0.580484
 H         4.591289         2.149404         0.313746
 H         2.514615         0.133803         2.227800
