19
Iteration:  2509charge 0 multiplicity 1
 C         4.277487        -1.716686         0.683445
 C         3.147586        -0.872382         0.133515
 O         1.929788        -1.457803        -0.357253
 C         1.367843         0.030322        -0.052103
 C        -0.121185         0.014179        -0.079706
 C         2.257052         1.023369        -0.995818
 C         3.441364         0.628457        -0.110003
 O         4.655060         1.253973         0.080890
 C         2.495933         0.328564         1.048608
 H         3.807861        -2.690480         1.079057
 H         4.827623        -1.986548        -0.255067
 H         4.933004        -1.343055         1.412218
 H        -0.511304        -0.613113         0.795025
 H        -0.418338         1.025622         0.124579
 H        -0.549843        -0.396082        -0.964812
 H         2.224660         0.914978        -2.144580
 H         1.727867         2.043893        -0.770404
 H         4.385674         2.159504        -0.035124
 H         2.555823         0.472911         2.106258
