19
Iteration:    96
 C         4.105520        -1.828225         0.566338
 C         3.219463        -0.787452         0.193932
 O         2.137427        -1.325555        -0.519906
 C         1.407558        -0.080324        -0.148502
 C        -0.123332         0.052768        -0.040145
 C         2.166616         0.895387        -0.975270
 C         3.351847         0.717144        -0.007691
 O         4.557120         1.438981         0.179877
 C         2.510339         0.193909         1.151960
 H         3.678931        -2.634432         1.128726
 H         4.579923        -2.298867        -0.402810
 H         4.860799        -1.435218         1.196421
 H        -0.452818        -0.598336         0.802170
 H        -0.166951         1.184450         0.225698
 H        -0.811458        -0.150723        -0.810907
 H         2.333719         0.445948        -1.965321
 H         1.787218         1.904263        -0.997549
 H         5.292845         0.992500        -0.317778
 H         2.857226         0.390644         2.156324
