19
Iteration:  3458
 C         4.198154        -1.820370         0.839738
 C         3.213619        -0.842447         0.319797
 O         1.954237        -1.371783        -0.558308
 C         1.407002        -0.030770        -0.264916
 C        -0.060061         0.010045         0.069633
 C         2.270035         0.955982        -1.038836
 C         3.379053         0.685276        -0.054566
 O         4.673384         1.336285        -0.027866
 C         2.369567         0.269559         1.067230
 H         3.908830        -2.716086         1.472906
 H         4.751290        -2.136589        -0.092370
 H         4.912126        -1.218053         1.360022
 H        -0.288316        -0.840448         0.715645
 H        -0.128090         0.909553         0.576296
 H        -0.808058        -0.079820        -0.779178
 H         2.289187         0.680068        -2.135447
 H         2.079437         2.071505        -0.871777
 H         4.372239         2.249250         0.151367
 H         2.272531         0.481345         2.171734
