19
Iteration:   697charge 0 multiplicity 1
 C         4.226896        -1.801188         0.650189
 C         3.282993        -0.796087         0.253011
 O         1.998718        -1.261563        -0.478200
 C         1.302650         0.004127        -0.077173
 C        -0.185038        -0.032641        -0.034378
 C         2.250963         0.990383        -0.955332
 C         3.432998         0.649232        -0.107431
 O         4.660162         1.350579         0.034042
 C         2.450668         0.119362         1.116195
 H         3.689134        -2.571203         0.999268
 H         4.958172        -2.100130        -0.130289
 H         4.837816        -1.471970         1.524734
 H        -0.420820        -1.059085         0.089822
 H        -0.503198         0.515439         0.804492
 H        -0.577415         0.137344        -1.068990
 H         2.270885         0.640352        -1.966994
 H         1.924436         2.012991        -1.036500
 H         4.398819         2.310910         0.011577
 H         2.468744         0.130759         2.195992
