19
Iteration:  4381charge 0 multiplicity 1
 C         4.321820        -1.770139         0.637123
 C         3.150834        -0.893150         0.317447
 O         2.026438        -1.298186        -0.322175
 C         1.374208        -0.006743        -0.137371
 C        -0.128913        -0.005237        -0.146856
 C         2.227163         0.887967        -0.995871
 C         3.430838         0.623542        -0.098490
 O         4.588129         1.321516         0.030616
 C         2.442463         0.337242         1.069715
 H         4.288035        -2.361224         1.517113
 H         4.387922        -2.426148        -0.255357
 H         5.241625        -1.257505         0.735061
 H        -0.516423        -0.809846         0.393726
 H        -0.614001         0.813569         0.353397
 H        -0.582417        -0.014951        -1.196282
 H         2.100041         0.675609        -2.097733
 H         1.932158         1.925456        -0.813348
 H         4.402433         2.048606         0.637329
 H         2.439929         0.514341         2.102814
