19
Iteration:  1491charge 0 multiplicity 1
 C         4.247386        -1.777168         0.764541
 C         3.208941        -0.853790         0.229725
 O         1.995452        -1.299122        -0.491489
 C         1.414334         0.052273        -0.098014
 C        -0.041829        -0.000605        -0.038755
 C         2.108431         1.060424        -0.967741
 C         3.369786         0.627626        -0.166994
 O         4.651814         1.208914         0.038294
 C         2.490875         0.216913         1.062776
 H         3.964975        -2.691667         1.390471
 H         5.045383        -1.921885        -0.123475
 H         4.703624        -1.204919         1.590584
 H        -0.502898        -0.964041         0.265220
 H        -0.581645         0.756532         0.561193
 H        -0.458513        -0.016097        -1.107540
 H         1.967025         0.729495        -2.029522
 H         1.682243         2.067798        -0.904693
 H         4.558292         2.082092         0.422447
 H         2.425912         0.259322         2.211397
