19
Iteration:  4839charge 0 multiplicity 1
 C         4.208889        -1.856282         0.731558
 C         3.225682        -0.805503         0.298153
 O         2.035608        -1.274718        -0.526498
 C         1.352314        -0.013357        -0.103866
 C        -0.091017        -0.071081         0.001972
 C         2.247263         1.036336        -0.914919
 C         3.355060         0.629146        -0.084129
 O         4.588769         1.400307        -0.009535
 C         2.457052         0.238018         1.018034
 H         3.615316        -2.705491         1.023986
 H         4.911364        -2.274173        -0.044410
 H         4.961069        -1.513582         1.518349
 H        -0.364545        -0.875376         0.696757
 H        -0.513635         0.851170         0.424857
 H        -0.720308        -0.232411        -0.906627
 H         2.196060         0.774362        -2.009062
 H         1.845601         2.065909        -0.674153
 H         5.356167         0.809731        -0.285747
 H         2.389237         0.777678         1.925407
