19
Iteration:  4246
 C         4.336335        -1.775387         0.654745
 C         3.156979        -0.811792         0.445784
 O         2.002930        -1.387851        -0.369919
 C         1.476533        -0.039107        -0.147619
 C        -0.079568         0.074575        -0.075873
 C         2.301256         0.947426        -1.067171
 C         3.349713         0.649968        -0.046187
 O         4.511585         1.318797        -0.059109
 C         2.352512         0.220792         1.038889
 H         3.728569        -2.708180         0.824270
 H         4.897210        -1.717887        -0.313985
 H         5.108527        -1.419197         1.388176
 H        -0.460647        -0.810714         0.593491
 H        -0.407431         0.918610         0.630536
 H        -0.474916         0.095584        -1.080186
 H         2.437973         0.518792        -2.072537
 H         1.953590         2.021538        -1.074061
 H         4.638625         1.777927         0.821832
 H         2.348115         0.789767         1.971992
