19
Iteration:  1617charge 0 multiplicity 1
 C         4.316796        -1.637730         0.628689
 C         3.151308        -0.823115         0.372896
 O         2.032352        -1.313171        -0.398866
 C         1.345796         0.043768        -0.071037
 C        -0.103335         0.016851        -0.140111
 C         2.220991         1.018498        -0.946613
 C         3.370392         0.562101        -0.056331
 O         4.639284         1.123094        -0.035334
 C         2.405924         0.204621         1.061187
 H         4.260750        -2.485912         1.390523
 H         4.648902        -2.005463        -0.331377
 H         5.054449        -0.806552         0.642363
 H        -0.650921        -0.510684         0.724200
 H        -0.596586         1.055087        -0.146595
 H        -0.475826        -0.367881        -1.132675
 H         2.312640         0.774851        -2.063808
 H         1.847357         2.051682        -0.668881
 H         4.735718         1.865083         0.600330
 H         2.354163         0.404809         2.208093
