19
Iteration:  2651
 C         4.272047        -1.675090         0.521508
 C         3.142561        -0.896008         0.347454
 O         1.978497        -1.385972        -0.339002
 C         1.400538        -0.045730        -0.156181
 C        -0.054698         0.096900        -0.038385
 C         2.300314         0.947614        -1.023894
 C         3.354170         0.720534        -0.036803
 O         4.641871         1.244207        -0.009775
 C         2.373951         0.183356         1.148338
 H         4.081930        -2.725279         0.905987
 H         4.894642        -1.747269        -0.408878
 H         4.935646        -1.353025         1.304354
 H        -0.741266        -0.443004         0.740680
 H        -0.253374         1.178306        -0.037234
 H        -0.593791        -0.131193        -0.989650
 H         2.542032         0.520420        -2.014445
 H         1.954835         2.000281        -1.117071
 H         4.514037         2.144788         0.267354
 H         2.004402         0.400647         2.247580
