19
Iteration:  4348
 C         4.273682        -1.833969         0.732159
 C         3.186498        -0.810948         0.279707
 O         2.105609        -1.255231        -0.397479
 C         1.435327        -0.032539        -0.149501
 C        -0.118402        -0.057106        -0.073481
 C         2.232926         1.033820        -0.993091
 C         3.276513         0.795010         0.010048
 O         4.616004         1.239479        -0.070908
 C         2.388593         0.179633         1.122599
 H         3.941275        -2.381543         1.577232
 H         4.353564        -2.629735        -0.033273
 H         5.131258        -1.254000         0.798701
 H        -0.438397        -0.640978         0.740848
 H        -0.356875         0.976218        -0.081570
 H        -0.609757        -0.506111        -1.010762
 H         2.508018         0.747924        -2.047372
 H         1.824719         2.050886        -0.910033
 H         4.616561         2.150870        -0.359921
 H         2.117056         0.018151         2.140536
