19
Iteration:  2754
 C         4.233207        -1.830630         0.818697
 C         3.208325        -0.810353         0.258714
 O         2.082037        -1.215145        -0.574609
 C         1.384165         0.089919        -0.103890
 C        -0.109116        -0.077663         0.000300
 C         2.106308         1.075028        -1.002893
 C         3.400821         0.552153        -0.016828
 O         4.671931         1.222027        -0.017414
 C         2.436353         0.207129         1.014374
 H         3.743013        -2.349432         1.655549
 H         4.510408        -2.554714         0.030885
 H         5.154126        -1.303582         1.193081
 H        -0.345683        -0.882310         0.673629
 H        -0.543637         0.844696         0.486055
 H        -0.687565        -0.345693        -0.902513
 H         2.322506         0.809043        -2.084844
 H         1.720333         2.164284        -0.864289
 H         4.587296         2.224929         0.036297
 H         2.292668         0.379237         2.076006
