19
Iteration:  3433charge 0 multiplicity 1
 C         4.197315        -1.817172         0.745218
 C         3.157910        -0.879830         0.359831
 O         2.036177        -1.364168        -0.437049
 C         1.416444         0.107136        -0.148499
 C        -0.052160        -0.034874         0.015653
 C         2.286135         1.039190        -1.074011
 C         3.377440         0.663079        -0.145814
 O         4.597928         1.275504        -0.008457
 C         2.400396         0.221584         1.041545
 H         3.848260        -2.578815         1.400790
 H         4.743721        -2.228365        -0.094630
 H         4.896966        -1.174894         1.346841
 H        -0.470734        -0.686680         0.831379
 H        -0.349345         1.026158         0.077823
 H        -0.434698        -0.428040        -0.998489
 H         2.251127         0.879165        -2.149973
 H         1.951960         2.082239        -0.843190
 H         4.287142         2.108197         0.323883
 H         2.461023         0.389647         2.159692
