19
Iteration:  2986
 C         4.297938        -1.797245         0.549921
 C         3.178376        -0.807725         0.360328
 O         1.957926        -1.336055        -0.321695
 C         1.395618        -0.042654        -0.132994
 C        -0.156186         0.057934        -0.070566
 C         2.375735         0.898343        -1.040074
 C         3.361719         0.705405        -0.015090
 O         4.639335         1.276196         0.036593
 C         2.377486         0.245932         1.045429
 H         4.316736        -2.557873         1.324471
 H         4.420277        -2.252207        -0.435880
 H         5.099039        -1.101000         0.733149
 H        -0.523072        -0.682779         0.675755
 H        -0.342430         1.035153         0.283170
 H        -0.756575        -0.240007        -1.079129
 H         2.584183         0.640513        -2.074213
 H         1.818555         1.842862        -0.938980
 H         4.520605         2.268672         0.118477
 H         2.070442         0.444216         2.056619
