19
Iteration:  3190charge 0 multiplicity 1
 C         4.303020        -1.643914         0.600015
 C         3.156420        -0.761561         0.389752
 O         1.958457        -1.375240        -0.371610
 C         1.412985         0.016983        -0.105945
 C        -0.078105         0.020772        -0.106939
 C         2.249297         0.949410        -1.020312
 C         3.350274         0.734495        -0.040379
 O         4.676870         1.137184        -0.041610
 C         2.331012         0.169752         1.135561
 H         4.185860        -2.340074         1.491230
 H         4.544346        -2.303513        -0.270454
 H         5.227010        -1.134848         0.855229
 H        -0.605793        -0.378107         0.759035
 H        -0.601642         1.029746        -0.427563
 H        -0.327655        -0.459267        -0.999363
 H         2.693617         0.750612        -2.047602
 H         1.756901         2.008193        -1.041513
 H         4.716234         2.100040         0.259725
 H         2.275157         0.260967         2.273789
