19
Iteration:  3151charge 0 multiplicity 1
 C         4.396237        -1.800274         0.692657
 C         3.189665        -0.834849         0.403889
 O         1.992422        -1.326784        -0.414720
 C         1.342459         0.001183        -0.112792
 C        -0.112883         0.083691        -0.050537
 C         2.215368         1.013654        -1.084006
 C         3.343213         0.589698        -0.178003
 O         4.585210         1.230816         0.039799
 C         2.445074         0.257054         1.054261
 H         4.010126        -2.461025         1.449634
 H         4.712934        -2.430905        -0.113862
 H         5.193288        -1.095953         1.139331
 H        -0.523477        -0.785070         0.524206
 H        -0.409303         1.025211         0.246627
 H        -0.441058        -0.421661        -1.058940
 H         2.116285         0.754856        -2.136754
 H         2.062798         2.055292        -0.971886
 H         4.463122         1.986064         0.623492
 H         2.472299         0.746135         2.047536
