19
Iteration:  2075charge 0 multiplicity 1
 C         4.175825        -1.853905         0.754773
 C         3.131981        -0.831804         0.397749
 O         2.073906        -1.257262        -0.514816
 C         1.420776         0.058170        -0.103457
 C        -0.041772        -0.108496         0.019109
 C         2.188221         1.118334        -1.021976
 C         3.342066         0.680977        -0.095195
 O         4.685378         1.227355        -0.114501
 C         2.410835         0.222980         1.093374
 H         3.719395        -2.642329         1.385953
 H         4.673880        -2.093643        -0.172828
 H         4.822325        -1.471850         1.530084
 H        -0.297489        -1.056672         0.642052
 H        -0.404046         0.848750         0.357156
 H        -0.338727        -0.241242        -0.992854
 H         2.139592         0.708555        -2.070245
 H         2.012569         2.173104        -0.749621
 H         4.712657         2.166465         0.008842
 H         2.011778         0.218010         2.048839
