19
Iteration:  1821charge 0 multiplicity 1
 C         4.219835        -1.834477         0.566888
 C         3.138367        -0.829142         0.451894
 O         2.082967        -1.246201        -0.445851
 C         1.396863        -0.003001        -0.088857
 C        -0.099229        -0.034604        -0.069414
 C         2.266982         0.913996        -1.051790
 C         3.379055         0.638893        -0.018456
 O         4.617957         1.268746        -0.010549
 C         2.379625         0.274791         1.108997
 H         4.075283        -2.627075         1.283192
 H         4.388158        -2.031133        -0.511120
 H         5.076448        -1.166431         0.934079
 H        -0.552235        -0.706995         0.710163
 H        -0.265201         1.039499         0.259478
 H        -0.526772        -0.133028        -1.129335
 H         2.284100         0.505192        -2.037056
 H         1.835098         1.970882        -1.139660
 H         4.722267         2.187018         0.338320
 H         2.302895         0.642816         2.263760
