19
Iteration:   953charge 0 multiplicity 1
 C         4.323866        -1.783464         0.565390
 C         3.226497        -0.784703         0.218343
 O         1.939211        -1.294922        -0.378482
 C         1.362213         0.003479        -0.081764
 C        -0.054965        -0.090638        -0.142932
 C         2.199550         1.090313        -0.870265
 C         3.407799         0.577744        -0.120127
 O         4.640312         1.243226         0.062640
 C         2.370024         0.243431         1.084163
 H         3.851406        -2.431601         1.412202
 H         4.673895        -2.335073        -0.269783
 H         5.107803        -1.139549         0.992937
 H        -0.548877        -0.813362         0.476536
 H        -0.440884         0.985700        -0.034867
 H        -0.332758        -0.586938        -1.064245
 H         2.167098         1.145010        -1.986916
 H         2.017427         2.085899        -0.383326
 H         4.477013         2.126675         0.456437
 H         2.465987         0.276842         2.078475
