19
Iteration:  1320charge 0 multiplicity 1
 C         4.277471        -1.822635         0.740252
 C         3.226690        -0.850568         0.176282
 O         1.934744        -1.318767        -0.459514
 C         1.361329         0.013117        -0.104991
 C        -0.059080        -0.065820        -0.049900
 C         2.240798         1.060991        -0.931833
 C         3.399388         0.704580        -0.169538
 O         4.620303         1.231762         0.070257
 C         2.449179         0.282652         0.980893
 H         3.979276        -2.753124         1.310338
 H         4.857985        -2.344932        -0.059373
 H         4.938768        -1.191981         1.387827
 H        -0.313449        -1.103991         0.261137
 H        -0.599505         0.585999         0.762093
 H        -0.792197         0.173838        -0.819415
 H         2.229997         0.961103        -1.983065
 H         1.806141         2.066633        -0.535715
 H         4.387890         1.968038         0.687813
 H         2.607320         0.724200         1.969899
