19
Iteration:   446charge 0 multiplicity 1
 C         4.268337        -1.869657         0.612703
 C         3.118167        -0.898723         0.360298
 O         2.034800        -1.248167        -0.536334
 C         1.379616         0.123594        -0.152483
 C        -0.070373        -0.070901        -0.008177
 C         2.248660         1.013714        -0.994644
 C         3.365225         0.614213        -0.017626
 O         4.634026         1.336927         0.048418
 C         2.404412         0.142374         1.085224
 H         4.055285        -2.623968         1.306789
 H         4.769478        -2.133321        -0.382379
 H         4.949387        -1.094655         1.052552
 H        -0.158445        -0.749049         0.819310
 H        -0.490703         0.907068         0.183270
 H        -0.580197        -0.516584        -0.846181
 H         2.302694         0.775692        -2.076959
 H         1.930138         2.066346        -0.850510
 H         4.458519         2.239346         0.318413
 H         2.225545         0.614895         2.114209
