19
Iteration:   957
 C         4.291213        -1.792357         0.590700
 C         3.222675        -0.801852         0.253010
 O         1.983699        -1.305385        -0.416639
 C         1.391552        -0.001791        -0.046971
 C        -0.063026        -0.055523        -0.164826
 C         2.178544         1.099992        -0.858098
 C         3.404080         0.595210        -0.134769
 O         4.607561         1.232161         0.048132
 C         2.397217         0.255085         1.087836
 H         3.857639        -2.417266         1.314904
 H         4.661544        -2.377836        -0.289121
 H         5.193329        -1.201773         0.914815
 H        -0.442867        -0.699138         0.652401
 H        -0.484767         0.886609        -0.110252
 H        -0.267383        -0.617518        -1.086383
 H         2.164980         1.203833        -1.952643
 H         1.852185         2.060525        -0.515128
 H         4.408554         2.085848         0.472483
 H         2.460279         0.224389         2.229662
