19
Iteration:  4597charge 0 multiplicity 1
 C         4.298505        -1.641533         0.736419
 C         3.193523        -0.854267         0.292052
 O         1.997751        -1.321061        -0.485380
 C         1.361534        -0.081292        -0.046501
 C        -0.126780         0.107067        -0.050720
 C         2.206552         0.946265        -0.972750
 C         3.444849         0.571002        -0.139844
 O         4.567974         1.338256        -0.026438
 C         2.424174         0.156931         1.063080
 H         4.043635        -2.408230         1.467466
 H         4.706555        -2.127679        -0.206775
 H         5.086597        -1.028545         1.076979
 H        -0.613732        -0.790763         0.312781
 H        -0.324110         0.905243         0.661468
 H        -0.431820         0.256917        -1.159088
 H         2.093895         0.647627        -2.040712
 H         1.845344         1.953979        -0.768149
 H         5.313231         1.116100         0.547804
 H         2.326349         0.314942         2.168530
