19
Iteration:  2983
 C         4.298056        -1.810803         0.567175
 C         3.178625        -0.826194         0.323193
 O         1.941084        -1.345999        -0.332289
 C         1.382483        -0.030517        -0.138766
 C        -0.166731         0.021142        -0.070656
 C         2.356175         0.889336        -1.043087
 C         3.372970         0.734341        -0.038556
 O         4.641501         1.282682         0.049045
 C         2.419508         0.267231         1.094213
 H         4.324079        -2.584985         1.373882
 H         4.472940        -2.270204        -0.443108
 H         5.098892        -1.143159         0.760301
 H        -0.492393        -0.686718         0.654588
 H        -0.388967         1.133388         0.248266
 H        -0.733875        -0.102202        -1.045217
 H         2.668412         0.692338        -2.024281
 H         1.860732         1.857207        -1.027036
 H         4.458122         2.248640         0.106942
 H         2.048839         0.492302         2.070583
