19
Iteration:  3427charge 0 multiplicity 1
 C         4.234397        -1.828087         0.774001
 C         3.159628        -0.795532         0.296601
 O         2.020423        -1.352889        -0.429652
 C         1.429233         0.052761        -0.131218
 C        -0.075354        -0.027219        -0.042432
 C         2.235237         1.048126        -1.061382
 C         3.351988         0.603291        -0.128538
 O         4.595146         1.266230         0.005275
 C         2.448231         0.254575         1.079238
 H         3.897064        -2.727935         1.403043
 H         4.636834        -2.241893        -0.192699
 H         4.975888        -1.281026         1.326958
 H        -0.365121        -0.603747         0.815003
 H        -0.491361         0.991764        -0.017683
 H        -0.495042        -0.463979        -0.933274
 H         2.182339         0.832962        -2.165824
 H         2.124089         2.153393        -0.980973
 H         4.504000         2.163584         0.405390
 H         2.512408         0.428777         2.149981
