19
Iteration:   431charge 0 multiplicity 1
 C         4.244581        -1.761608         0.535580
 C         3.150842        -0.837805         0.290226
 O         2.025712        -1.315572        -0.430836
 C         1.449919        -0.101889        -0.117476
 C        -0.060571        -0.036891        -0.028944
 C         2.218433         1.028814        -0.992354
 C         3.390507         0.663312        -0.067434
 O         4.586003         1.252874         0.141407
 C         2.420781         0.316935         1.034556
 H         3.979136        -2.795450         1.146089
 H         4.474162        -2.283051        -0.426680
 H         5.135039        -1.347590         1.008833
 H        -0.558061        -0.612339         0.805312
 H        -0.422111         1.050830         0.047992
 H        -0.424020        -0.338334        -1.011615
 H         2.349571         0.939931        -2.117900
 H         1.868863         1.976916        -0.609010
 H         4.368379         2.195047         0.357777
 H         2.400314         0.527072         2.041356
