19
Iteration:  1438charge 0 multiplicity 1
 C         4.307315        -1.683219         0.529428
 C         3.168195        -0.808639         0.374283
 O         2.059583        -1.301126        -0.424931
 C         1.389080         0.114181        -0.120852
 C        -0.099549        -0.034289        -0.074545
 C         2.229457         0.966891        -0.987571
 C         3.317508         0.691220        -0.007267
 O         4.633374         1.108878         0.048460
 C         2.398602         0.237989         1.136355
 H         4.016284        -2.604472         1.009467
 H         4.477909        -2.176143        -0.464189
 H         5.156999        -1.313167         1.056973
 H        -0.577952        -0.792574         0.596118
 H        -0.503781         1.064403        -0.119834
 H        -0.406376        -0.473046        -1.122427
 H         2.253569         0.664785        -2.040420
 H         1.764961         2.004733        -0.786212
 H         4.778386         2.048961        -0.076675
 H         2.159581         0.404634         2.239295
