19
Iteration:  1442
 C         4.322417        -1.685774         0.533688
 C         3.128045        -0.815839         0.396084
 O         2.070810        -1.299031        -0.437799
 C         1.359137         0.112480        -0.131150
 C        -0.062047        -0.035415        -0.078748
 C         2.228902         0.959228        -0.973959
 C         3.319147         0.690262         0.013310
 O         4.668758         1.115734         0.025570
 C         2.348673         0.235160         1.116303
 H         4.059419        -2.620088         1.062574
 H         4.414613        -1.981484        -0.482581
 H         5.192812        -1.335411         1.120764
 H        -0.568143        -0.750286         0.548669
 H        -0.473121         1.017245         0.034232
 H        -0.475088        -0.438932        -0.940357
 H         2.237534         0.704673        -2.021423
 H         1.779726         1.976250        -0.817340
 H         4.863273         2.081378        -0.109966
 H         2.139158         0.319064         2.158929
