19
Iteration:  2223charge 0 multiplicity 1
 C         4.233630        -1.920759         0.817597
 C         3.209851        -0.889763         0.213348
 O         1.987651        -1.241445        -0.451241
 C         1.386248         0.040364        -0.086833
 C        -0.131105        -0.094198        -0.076548
 C         2.121164         1.085464        -0.982408
 C         3.405926         0.638489        -0.194669
 O         4.660661         1.263628         0.027533
 C         2.505670         0.274336         1.052474
 H         3.893432        -2.588263         1.533499
 H         4.819802        -2.529231         0.142651
 H         5.024995        -1.291932         1.304054
 H        -0.158750        -0.729600         0.795776
 H        -0.524642         0.814854         0.371570
 H        -0.518672        -0.328562        -1.107946
 H         2.106746         0.990420        -2.038114
 H         1.794227         2.090788        -0.761626
 H         4.538223         2.246268         0.190133
 H         2.605333         0.922659         1.885370
