19
Iteration:  4224
 C         4.374865        -1.807945         0.692299
 C         3.159147        -0.858382         0.215446
 O         1.953303        -1.365766        -0.294084
 C         1.366303        -0.023321        -0.100507
 C        -0.179627         0.044175        -0.120616
 C         2.220726         0.900498        -1.127366
 C         3.409459         0.690835        -0.059175
 O         4.631411         1.343969         0.038604
 C         2.459503         0.263158         1.054949
 H         3.900991        -2.658314         1.235411
 H         5.102137        -2.050867        -0.105908
 H         4.938264        -1.026314         1.239364
 H        -0.601584        -0.874405         0.427563
 H        -0.421941         0.899020         0.619653
 H        -0.528196         0.215593        -1.129581
 H         2.502030         0.716266        -2.166381
 H         1.930170         1.978579        -1.011331
 H         4.417614         2.033913         0.657249
 H         2.409444         0.167331         2.118400
