19
Iteration:   262
 C         4.195350        -1.839427         0.551468
 C         3.227048        -0.766951         0.320994
 O         2.098830        -1.294842        -0.490427
 C         1.400040        -0.015844        -0.081266
 C        -0.048552         0.053046        -0.031686
 C         2.210257         0.946630        -1.042291
 C         3.322461         0.660376        -0.048036
 O         4.540744         1.347788         0.053806
 C         2.442387         0.227763         1.123665
 H         3.676341        -2.616292         1.093607
 H         4.659587        -2.253402        -0.418407
 H         5.081479        -1.715145         1.152698
 H        -0.333769        -0.714285         0.684034
 H        -0.427175         1.080849         0.107569
 H        -0.379693        -0.382439        -1.025781
 H         2.246066         0.712346        -2.081679
 H         1.767271         1.922051        -0.802836
 H         4.879348         1.187230         0.967184
 H         2.340154         0.319308         2.249494
