19
Iteration:  3439
 C         4.185991        -1.777964         0.734035
 C         3.104172        -0.951156         0.375002
 O         2.052183        -1.337860        -0.441834
 C         1.404382         0.081049        -0.151677
 C        -0.032990        -0.018396         0.037531
 C         2.293730         1.025648        -1.061267
 C         3.430044         0.672117        -0.116337
 O         4.605740         1.299725        -0.024901
 C         2.389331         0.189042         0.978684
 H         3.694751        -2.537745         1.442792
 H         4.861745        -2.239305        -0.020342
 H         4.886350        -1.193973         1.331071
 H        -0.384357        -0.675078         0.808878
 H        -0.441770         1.021763         0.335482
 H        -0.405846        -0.320479        -0.879625
 H         2.451084         0.827513        -2.148409
 H         1.770491         1.944409        -0.732437
 H         4.290606         2.219826         0.253648
 H         2.189385         0.478282         1.975625
