19
Iteration:  1242charge 0 multiplicity 1
 C         4.340986        -1.748518         0.587911
 C         3.122401        -0.887404         0.362084
 O         1.986216        -1.295629        -0.426246
 C         1.386153         0.021240        -0.072896
 C        -0.065711         0.016012        -0.147063
 C         2.160535         1.040758        -0.942461
 C         3.374623         0.580787        -0.077646
 O         4.652368         1.236411         0.067019
 C         2.439582         0.202605         1.076406
 H         4.045041        -2.661427         1.113364
 H         4.802887        -2.021376        -0.404391
 H         5.158571        -1.257721         1.038318
 H        -0.583626        -0.523473         0.672693
 H        -0.498777         1.038690        -0.080802
 H        -0.287783        -0.345513        -1.163965
 H         2.059995         0.859426        -2.021611
 H         1.869916         2.080494        -0.702971
 H         4.427798         2.158746         0.227965
 H         2.417149         0.470782         2.096398
