19
Iteration:  2717
 C         4.118400        -1.771596         0.723386
 C         3.165904        -0.814739         0.243744
 O         2.028797        -1.302829        -0.459678
 C         1.420830         0.033420        -0.220848
 C        -0.065797        -0.146338         0.013105
 C         2.246830         1.061426        -0.911485
 C         3.445052         0.710408         0.009604
 O         4.671550         1.218478        -0.121548
 C         2.420207         0.276912         1.106127
 H         3.435920        -2.607194         0.991045
 H         4.744719        -2.168122        -0.085450
 H         4.860568        -1.487335         1.492896
 H        -0.209881        -0.900025         0.863380
 H        -0.575450         0.830545         0.238925
 H        -0.362483        -0.323101        -0.992657
 H         2.315736         0.859098        -1.965182
 H         1.779910         2.002419        -0.802372
 H         4.517651         2.100320         0.314891
 H         2.009201         0.413228         2.130696
