19
Iteration:  4154
 C         4.154156        -1.752966         0.734716
 C         3.102387        -0.779133         0.349109
 O         2.041610        -1.287287        -0.493762
 C         1.366020        -0.018634        -0.077642
 C        -0.096168        -0.198259        -0.020484
 C         2.319289         1.093639        -0.972302
 C         3.444194         0.720753        -0.047183
 O         4.757870         1.253954        -0.117397
 C         2.281319         0.180597         1.093177
 H         3.879456        -2.198665         1.685181
 H         4.372278        -2.460307        -0.069801
 H         5.023876        -1.070580         0.698712
 H        -0.355953        -0.640325         0.899852
 H        -0.588692         0.756101        -0.142044
 H        -0.218720        -0.809292        -0.963506
 H         2.278288         0.854100        -2.029906
 H         1.875205         2.061562        -0.895725
 H         4.682404         2.191732         0.106261
 H         2.141829         0.458933         2.231220
