19
Iteration:   958
 C         4.284907        -1.791140         0.596038
 C         3.219089        -0.808826         0.260034
 O         1.994816        -1.306730        -0.424924
 C         1.399954        -0.002583        -0.040642
 C        -0.065073        -0.050933        -0.168500
 C         2.174090         1.100653        -0.857913
 C         3.402011         0.603548        -0.134902
 O         4.601217         1.230141         0.044811
 C         2.406358         0.254615         1.087365
 H         3.866756        -2.430300         1.307076
 H         4.651144        -2.386894        -0.295660
 H         5.198012        -1.230536         0.902247
 H        -0.427895        -0.677495         0.704431
 H        -0.518987         0.898326        -0.128679
 H        -0.259333        -0.616687        -1.107103
 H         2.164437         1.201915        -1.948473
 H         1.812923         2.073887        -0.531492
 H         4.395983         2.069566         0.470215
 H         2.455638         0.221041         2.268493
