19
Iteration:   464charge 0 multiplicity 1
 C         4.283694        -1.807310         0.749088
 C         3.213127        -0.819534         0.198334
 O         2.011678        -1.224264        -0.590766
 C         1.378601         0.051449        -0.087413
 C        -0.138577        -0.080910         0.047871
 C         2.321282         1.067609        -0.957546
 C         3.384768         0.649173        -0.010390
 O         4.612894         1.293708        -0.034291
 C         2.349683         0.146951         1.096614
 H         3.574959        -2.605776         1.330251
 H         4.753345        -2.245799        -0.171479
 H         5.167989        -1.505062         1.327983
 H        -0.412613        -0.964046         0.723513
 H        -0.775262         0.828541         0.412382
 H        -0.459066        -0.481506        -0.906946
 H         2.510025         0.771456        -2.046463
 H         2.126207         2.118835        -1.096073
 H         4.548008         2.164469         0.357045
 H         2.194748        -0.109689         2.082713
