19
Iteration:  2023
 C         4.303606        -1.808851         0.750653
 C         3.208975        -0.823605         0.291897
 O         1.976996        -1.268471        -0.469590
 C         1.406635         0.027803        -0.151460
 C        -0.023612         0.043570         0.012693
 C         2.158868         0.985199        -1.024896
 C         3.373499         0.631265        -0.143531
 O         4.640650         1.273441         0.023781
 C         2.373976         0.163518         1.050149
 H         3.728657        -2.601539         1.369233
 H         4.665481        -2.385323        -0.132424
 H         5.123105        -1.218299         1.203395
 H        -0.292145        -0.751049         0.768021
 H        -0.336525         1.093050         0.281929
 H        -0.396102        -0.366575        -0.981669
 H         2.238771         0.692059        -2.111119
 H         1.750756         1.976143        -0.820312
 H         4.374425         2.087968         0.450485
 H         2.370211         0.331739         2.131692
