19
Iteration:  2992
 C         4.302906        -1.737446         0.518034
 C         3.159528        -0.812000         0.429738
 O         2.005867        -1.333079        -0.312127
 C         1.410311        -0.057334        -0.140401
 C        -0.117049         0.085290        -0.084298
 C         2.348261         0.930733        -1.051958
 C         3.365996         0.642314         0.025438
 O         4.631091         1.260757         0.017587
 C         2.291871         0.222670         0.997055
 H         4.169766        -2.522588         1.307361
 H         4.377076        -2.257881        -0.469715
 H         5.238788        -1.142375         0.674576
 H        -0.499801        -0.586227         0.683407
 H        -0.431188         1.126711         0.353198
 H        -0.558886        -0.302361        -0.918822
 H         2.420628         0.568367        -2.102116
 H         1.869754         1.906519        -0.889835
 H         4.623896         2.235208         0.150586
 H         2.188169         0.400385         2.064506
