19
Iteration:  3143
 C         4.345971        -1.796240         0.745751
 C         3.188995        -0.917675         0.307652
 O         1.963260        -1.318295        -0.385966
 C         1.409777         0.024862        -0.080883
 C        -0.083159         0.008099        -0.055172
 C         2.242856         1.083444        -1.132383
 C         3.349182         0.565529        -0.162020
 O         4.577027         1.276346         0.047909
 C         2.454483         0.260614         1.057857
 H         4.053484        -2.589420         1.479878
 H         4.731263        -2.352435        -0.128108
 H         5.206749        -1.304030         1.184609
 H        -0.342288        -0.778380         0.705972
 H        -0.629456         0.949548         0.288781
 H        -0.609424        -0.016563        -1.064061
 H         1.954900         0.608849        -2.121912
 H         2.143947         2.187815        -1.119471
 H         4.278029         2.117821         0.452174
 H         2.402387         0.663729         2.018645
