19
Iteration:  4762charge 0 multiplicity 1
 C         4.371072        -1.756950         0.656448
 C         3.183858        -0.903441         0.246318
 O         1.969316        -1.393984        -0.369466
 C         1.376624        -0.026207        -0.077649
 C        -0.069996         0.068018        -0.088107
 C         2.214530         1.011080        -0.960707
 C         3.355846         0.633900        -0.096657
 O         4.575040         1.368632         0.077905
 C         2.381283         0.248145         1.074232
 H         4.369448        -2.276396         1.578936
 H         4.424580        -2.537526        -0.152540
 H         5.361161        -1.324364         0.575108
 H        -0.565933        -0.807518         0.202088
 H        -0.563414         0.868424         0.433895
 H        -0.350010         0.117276        -1.202074
 H         2.159314         0.694335        -2.040858
 H         1.861269         2.046321        -0.780814
 H         5.292167         1.241922        -0.572910
 H         2.267117         0.653917         2.046852
