19
Iteration:  4843
 C         4.253021        -1.858463         0.770295
 C         3.203534        -0.836566         0.243833
 O         2.044099        -1.257607        -0.525253
 C         1.376792        -0.041913        -0.098108
 C        -0.109583        -0.016015         0.034529
 C         2.249063         1.031825        -0.940607
 C         3.358586         0.608481        -0.071736
 O         4.569095         1.400020        -0.003751
 C         2.449321         0.233548         0.993791
 H         3.681579        -2.781483         0.946554
 H         4.872280        -2.168612        -0.037925
 H         4.958571        -1.509049         1.520087
 H        -0.381232        -0.890115         0.791836
 H        -0.611470         0.939028         0.349890
 H        -0.540484        -0.257546        -0.928304
 H         2.181671         0.873311        -2.009082
 H         1.805881         1.984679        -0.643484
 H         5.318225         0.856423        -0.213626
 H         2.265063         0.797649         1.958272
