19
Iteration:  1892
 C         4.188218        -1.816134         0.770290
 C         3.216954        -0.835387         0.219433
 O         2.138447        -1.237955        -0.506993
 C         1.365261         0.022860        -0.165326
 C        -0.082463        -0.002972         0.028432
 C         2.232460         1.042607        -0.950595
 C         3.349761         0.625995        -0.063859
 O         4.596457         1.257685        -0.097650
 C         2.382943         0.160205         1.079913
 H         3.521979        -2.482452         1.489449
 H         4.910926        -2.295284         0.070904
 H         4.703989        -1.368242         1.603539
 H        -0.227032        -0.768748         0.825228
 H        -0.491346         0.907708         0.451992
 H        -0.664457        -0.235347        -0.876416
 H         2.316838         0.811964        -2.060571
 H         2.054579         2.089128        -0.929191
 H         4.597665         2.103435         0.422761
 H         2.415476         0.120580         2.100502
