19
Iteration:   331
 C         4.182545        -1.770894         0.663944
 C         3.260329        -0.751680         0.205347
 O         2.112389        -1.244864        -0.588514
 C         1.430428        -0.005159        -0.058810
 C        -0.144076        -0.049576         0.015816
 C         2.089560         1.007189        -0.933145
 C         3.396638         0.658022        -0.102681
 O         4.662322         1.196905         0.086497
 C         2.440394         0.181708         1.076964
 H         3.471816        -2.513837         1.263268
 H         4.695241        -2.436016         0.005949
 H         4.926716        -1.292073         1.376640
 H        -0.514026        -0.898821         0.564409
 H        -0.539507         0.903570         0.228050
 H        -0.541180        -0.143712        -1.026768
 H         2.108629         0.869357        -2.001903
 H         1.716662         1.938906        -0.519725
 H         4.643533         2.150348         0.028116
 H         2.506888         0.516329         2.157107
