19
Iteration:    62charge 0 multiplicity 1
 C         4.387990        -1.825056         0.550033
 C         3.142069        -0.917084         0.295616
 O         1.931410        -1.316268        -0.374227
 C         1.369064         0.066111        -0.114825
 C        -0.053196        -0.034612        -0.185702
 C         2.233483         1.093035        -0.862051
 C         3.383530         0.577856        -0.048514
 O         4.536408         1.308177         0.129937
 C         2.401134         0.240727         1.067503
 H         4.332835        -2.698744         1.204620
 H         4.909463        -2.111371        -0.451896
 H         5.163986        -1.077540         0.803520
 H        -0.354107        -0.743789         0.623791
 H        -0.574115         0.917301         0.236581
 H        -0.353483        -0.238751        -1.223093
 H         2.238011         0.971058        -1.982236
 H         1.995087         2.119718        -0.561437
 H         5.058171         1.241376        -0.682794
 H         2.448746         0.899769         1.987706
