19
Iteration:   650
 C         4.189869        -1.842685         0.747826
 C         3.257849        -0.798070         0.367526
 O         2.113423        -1.200614        -0.604449
 C         1.338495         0.049651        -0.162560
 C        -0.091472        -0.150883         0.023558
 C         2.128906         1.115038        -0.936608
 C         3.418361         0.657828        -0.080855
 O         4.727323         1.244723        -0.057550
 C         2.309736         0.133437         1.089172
 H         3.578872        -2.598317         1.259613
 H         4.516128        -2.220816        -0.174918
 H         5.097055        -1.648855         1.267344
 H        -0.263952        -0.980462         0.749443
 H        -0.431074         0.861408         0.462996
 H        -0.573334        -0.485197        -0.918215
 H         2.124750         1.255530        -2.053585
 H         1.779193         2.089700        -0.613966
 H         4.720532         2.130039         0.324120
 H         2.118568         0.484284         2.159452
