19
Iteration:  1605charge 0 multiplicity 1
 C         4.366641        -1.654601         0.572364
 C         3.109266        -0.855040         0.291855
 O         1.944678        -1.306144        -0.395899
 C         1.415332        -0.011718        -0.085816
 C        -0.092428         0.003668        -0.128942
 C         2.138412         0.979468        -0.937752
 C         3.384412         0.647266        -0.077840
 O         4.697025         1.115877         0.044655
 C         2.410612         0.305151         1.078870
 H         4.258496        -2.261649         1.507557
 H         4.617084        -2.382275        -0.222828
 H         5.198725        -1.047075         0.965966
 H        -0.604167        -0.613389         0.651832
 H        -0.406756         1.096212        -0.267121
 H        -0.233450        -0.582264        -1.037622
 H         1.982893         0.837543        -2.036107
 H         1.929888         2.087345        -0.704558
 H         4.573125         1.962186         0.478595
 H         2.359497         0.533457         2.189528
