19
Iteration:  4801charge 0 multiplicity 1
 C         4.193627        -1.894510         0.644235
 C         3.205380        -0.741250         0.318402
 O         1.981177        -1.254143        -0.424731
 C         1.429867         0.046800        -0.043199
 C        -0.095425        -0.220166        -0.115600
 C         2.185376         1.019717        -0.915622
 C         3.408135         0.768873        -0.060983
 O         4.644808         1.303457         0.001834
 C         2.431421         0.312393         1.080541
 H         3.629682        -2.463970         1.487233
 H         4.229729        -2.536671        -0.256669
 H         5.140738        -1.518568         1.028364
 H        -0.128811        -1.325665         0.121277
 H        -0.612731         0.399939         0.644304
 H        -0.409441         0.051583        -1.109925
 H         2.305574         0.706248        -1.943215
 H         1.969358         2.080629        -0.896295
 H         5.046270         1.048508        -0.833928
 H         2.443061         0.842874         2.097427
