19
Iteration:  3855charge 0 multiplicity 1
 C         4.332968        -1.755334         0.829337
 C         3.218560        -0.815908         0.288904
 O         1.946323        -1.258249        -0.429743
 C         1.436171         0.040023        -0.049072
 C        -0.111931        -0.068120        -0.080124
 C         2.099332         0.985741        -1.015418
 C         3.390607         0.717528        -0.132602
 O         4.683937         1.201046        -0.057226
 C         2.425008         0.177528         1.079604
 H         3.809378        -2.555315         1.296411
 H         4.927161        -2.180288         0.028134
 H         4.928183        -1.183471         1.555067
 H        -0.350108        -1.124368         0.076357
 H        -0.645281         0.842407         0.359941
 H        -0.287935         0.020327        -1.120713
 H         2.039308         0.783894        -2.063312
 H         1.715799         1.976111        -0.910731
 H         4.737157         2.198774        -0.083322
 H         2.286592         0.321533         2.064601
