19
Iteration:  4484
 C         4.164445        -1.724970         0.797604
 C         3.145936        -0.775770         0.315052
 O         2.023795        -1.359570        -0.508091
 C         1.398779         0.003570        -0.021754
 C        -0.079092        -0.097596        -0.106756
 C         2.164730         1.070188        -0.932835
 C         3.416322         0.664708        -0.143478
 O         4.671246         1.296542         0.009646
 C         2.513192         0.143409         1.025537
 H         3.615866        -2.609260         1.174090
 H         4.704571        -2.113781         0.042005
 H         4.898545        -1.280377         1.474552
 H        -0.662174        -0.542492         0.766378
 H        -0.563829         0.875133        -0.116446
 H        -0.408288        -0.672059        -0.892514
 H         2.238974         1.149872        -2.023056
 H         1.684717         1.969540        -0.440522
 H         4.800296         1.864605        -0.811721
 H         2.614565         0.526087         2.059994
