19
Iteration:  1628
 C         4.377236        -1.642232         0.635665
 C         3.127779        -0.876912         0.359967
 O         2.046385        -1.317736        -0.411005
 C         1.402744         0.028307        -0.090298
 C        -0.208744         0.054653        -0.158257
 C         2.278730         1.026183        -0.981804
 C         3.330081         0.660648        -0.034521
 O         4.615874         1.143537        -0.107627
 C         2.382869         0.147559         1.175428
 H         4.218231        -2.535660         1.361263
 H         4.507690        -2.143013        -0.308811
 H         5.256628        -1.139001         1.140464
 H        -0.423531        -0.683812         0.697170
 H        -0.475948         1.117864         0.135121
 H        -0.667637        -0.416436        -1.077837
 H         2.539438         0.876261        -2.099471
 H         1.984444         2.120182        -0.865653
 H         4.669085         1.822616         0.610425
 H         2.235786         0.546535         2.284534
