19
Iteration:  1451charge 0 multiplicity 1
 C         4.322498        -1.712250         0.568589
 C         3.060316        -0.805282         0.423971
 O         2.071902        -1.286756        -0.465883
 C         1.383507        -0.008708        -0.123631
 C        -0.077812        -0.022523        -0.086873
 C         2.211794         1.000149        -0.962091
 C         3.375869         0.684409         0.049619
 O         4.740781         1.123609        -0.026827
 C         2.233599         0.232273         1.082103
 H         4.112353        -2.630910         1.051193
 H         4.656311        -1.716946        -0.440784
 H         5.162960        -1.180443         0.994575
 H        -0.259272        -0.686767         0.797277
 H        -0.534974         0.928075         0.434393
 H        -0.581589        -0.262923        -1.023874
 H         2.367042         0.734000        -1.995118
 H         1.922008         2.124545        -0.946827
 H         4.726685         2.113416        -0.116510
 H         2.040808         0.327203         2.169132
