19
Iteration:  4712
 C         4.384246        -1.763864         0.584029
 C         3.149056        -0.905420         0.320203
 O         2.046978        -1.340986        -0.438477
 C         1.399146         0.014813        -0.163128
 C        -0.114561         0.103168         0.048540
 C         2.241441         0.888783        -1.118978
 C         3.373820         0.626498        -0.046932
 O         4.525722         1.338191         0.161908
 C         2.358499         0.254763         1.025398
 H         4.075295        -2.558560         1.357323
 H         4.820187        -2.262925        -0.248855
 H         5.234489        -1.292293         1.177618
 H        -0.456060        -0.278377         1.098747
 H        -0.513684         1.133289        -0.010449
 H        -0.694460        -0.458966        -0.628692
 H         2.184365         0.615506        -2.150781
 H         2.200927         1.962235        -0.879308
 H         5.095496         1.431029        -0.602982
 H         2.116268         0.692374         1.985224
