19
Iteration:  4779charge 0 multiplicity 1
 C         4.269386        -1.827931         0.623167
 C         3.222400        -0.867978         0.438890
 O         2.043082        -1.263207        -0.372069
 C         1.367234         0.037326        -0.137467
 C        -0.206683        -0.074571        -0.162447
 C         2.194608         1.032863        -0.999865
 C         3.373270         0.626486        -0.092058
 O         4.567024         1.329908         0.061959
 C         2.562532         0.261142         1.064405
 H         4.200160        -2.269443         1.701267
 H         4.287897        -2.549069        -0.208667
 H         5.181477        -1.215013         0.696819
 H        -0.499412        -1.096822         0.261556
 H        -0.511985         0.675655         0.610029
 H        -0.688167         0.185567        -1.082629
 H         2.292762         1.002658        -2.074155
 H         1.814082         2.000499        -0.671137
 H         4.949470         1.065405        -0.817760
 H         2.548830         0.454937         2.196187
