19
Iteration:  3375charge 0 multiplicity 1
 C         4.300808        -1.751229         0.579212
 C         3.128326        -0.770375         0.415067
 O         1.959457        -1.287986        -0.300016
 C         1.441978         0.043098        -0.185943
 C        -0.070264        -0.078236        -0.179975
 C         2.296614         0.996142        -0.936976
 C         3.352343         0.645510        -0.026136
 O         4.621448         1.148090        -0.046598
 C         2.387759         0.276157         1.100065
 H         4.048616        -2.464597         1.367866
 H         4.556870        -2.201326        -0.396291
 H         5.212270        -1.203938         0.874604
 H        -0.497233        -0.404958         0.796523
 H        -0.621122         0.981566        -0.349984
 H        -0.366518        -0.685098        -1.010892
 H         2.454955         0.786127        -1.991585
 H         1.808034         1.925531        -0.635939
 H         4.609338         2.149058         0.070229
 H         2.180198         0.581228         2.100745
