19
Iteration:  4941
 C         4.214737        -1.848924         0.563591
 C         3.194535        -0.828350         0.261449
 O         1.943792        -1.286343        -0.308251
 C         1.395916         0.092364        -0.062071
 C        -0.075216        -0.190291        -0.159850
 C         2.173467         1.076774        -0.969472
 C         3.423552         0.654611        -0.035765
 O         4.652736         1.304612         0.100619
 C         2.432357         0.330622         1.070354
 H         3.948003        -2.615813         1.353670
 H         4.382233        -2.294429        -0.430583
 H         5.211581        -1.379363         0.696867
 H        -0.565065        -0.945003         0.581191
 H        -0.565370         0.787601         0.150581
 H        -0.369412        -0.248014        -1.180379
 H         2.470702         0.702296        -1.969455
 H         1.934410         2.171179        -0.983070
 H         5.296042         1.172107        -0.576005
 H         2.326336         0.487326         2.133147
