19
Iteration:  1620
 C         4.329736        -1.630031         0.643719
 C         3.152540        -0.826527         0.379397
 O         2.043630        -1.315634        -0.402200
 C         1.353435         0.051486        -0.054689
 C        -0.129643         0.029310        -0.151909
 C         2.235531         1.034874        -0.965366
 C         3.360899         0.572554        -0.054427
 O         4.628328         1.126688        -0.055291
 C         2.406306         0.178225         1.086548
 H         4.244219        -2.560705         1.291594
 H         4.580844        -2.080677        -0.335290
 H         5.022839        -0.807799         0.696394
 H        -0.582163        -0.550379         0.722454
 H        -0.557148         1.036505        -0.087050
 H        -0.609297        -0.389044        -1.143236
 H         2.442859         0.771153        -2.061802
 H         1.870303         1.987278        -0.675999
 H         4.732327         1.840180         0.610037
 H         2.329651         0.413893         2.162535
