19
Iteration:  1619charge 0 multiplicity 1
 C         4.325211        -1.631393         0.638647
 C         3.153203        -0.823405         0.378492
 O         2.040486        -1.314945        -0.401097
 C         1.349356         0.049885        -0.058849
 C        -0.118325         0.025397        -0.148125
 C         2.230559         1.030808        -0.958422
 C         3.364103         0.566631        -0.054877
 O         4.631558         1.125135        -0.048885
 C         2.407015         0.185776         1.074940
 H         4.246484        -2.553174         1.329085
 H         4.604577        -2.050319        -0.328462
 H         5.020001        -0.803097         0.663961
 H        -0.613320        -0.542357         0.736314
 H        -0.576563         1.047199        -0.108743
 H        -0.575775        -0.384575        -1.155108
 H         2.406009         0.765303        -2.076935
 H         1.859453         2.003493        -0.668794
 H         4.737419         1.853347         0.611717
 H         2.337166         0.412082         2.194072
