19
Iteration:  2049
 C         4.158369        -1.801265         0.757558
 C         3.187619        -0.848887         0.176124
 O         2.047108        -1.307395        -0.482964
 C         1.352774         0.013780        -0.141657
 C        -0.163152        -0.074667         0.060436
 C         2.230867         1.031476        -0.960049
 C         3.363643         0.660862        -0.122555
 O         4.687088         1.260563         0.031319
 C         2.514926         0.267003         0.997000
 H         3.535997        -2.445940         1.391447
 H         4.823523        -2.380670         0.070891
 H         4.719313        -1.106272         1.514050
 H        -0.388114        -0.914541         0.638013
 H        -0.512165         0.911570         0.397288
 H        -0.464410        -0.342264        -0.988117
 H         2.354591         0.813602        -1.992913
 H         1.894679         2.061531        -0.641822
 H         4.597578         2.197131        -0.034544
 H         2.685246         0.535921         2.119779
