19
Iteration:  2166charge 0 multiplicity 1
 C         4.365943        -1.794930         0.621952
 C         3.136283        -0.841792         0.355013
 O         2.054460        -1.409504        -0.389249
 C         1.403709         0.046780        -0.130981
 C        -0.136628         0.101222        -0.011561
 C         2.247838         0.979413        -1.105083
 C         3.344026         0.722539        -0.025498
 O         4.598914         1.216516         0.013268
 C         2.353667         0.210145         1.063388
 H         4.231281        -2.554140         1.346420
 H         4.471068        -2.195557        -0.361016
 H         5.221484        -1.212936         0.867406
 H        -0.416704        -0.561129         0.716733
 H        -0.505760         1.138778         0.233428
 H        -0.679340        -0.354507        -0.917678
 H         2.469423         0.694029        -2.121832
 H         2.143300         2.010747        -0.969282
 H         4.678881         2.113441         0.366605
 H         2.083867         0.485121         2.107808
