19
Iteration:   264charge 0 multiplicity 1
 C         4.200066        -1.832264         0.554639
 C         3.206514        -0.773612         0.348556
 O         2.106952        -1.298007        -0.493313
 C         1.388759        -0.016353        -0.103095
 C        -0.049931         0.042303        -0.011191
 C         2.216471         0.962389        -1.050715
 C         3.336603         0.654218        -0.051522
 O         4.545644         1.356130         0.047613
 C         2.432616         0.222220         1.110745
 H         3.617362        -2.675503         1.001520
 H         4.551735        -2.282131        -0.345108
 H         5.117509        -1.730021         1.179357
 H        -0.359725        -0.657661         0.708870
 H        -0.406221         0.975473         0.113689
 H        -0.353875        -0.344638        -1.018116
 H         2.253095         0.782458        -2.063151
 H         1.781944         1.938145        -0.805576
 H         4.918477         1.268834         0.973426
 H         2.395802         0.262832         2.270629
