19
Iteration:  3366charge 0 multiplicity 1
 C         4.303544        -1.787557         0.603215
 C         3.138296        -0.887762         0.336132
 O         1.998912        -1.287357        -0.331542
 C         1.366838         0.008154        -0.170124
 C        -0.062186        -0.025689        -0.153128
 C         2.290866         0.990424        -1.000263
 C         3.369657         0.677633         0.019498
 O         4.616316         1.162272        -0.038597
 C         2.300779         0.331992         1.185141
 H         4.351703        -2.530304         1.330792
 H         4.723383        -2.234495        -0.271233
 H         5.136762        -1.030681         0.837256
 H        -0.478299        -0.603349         0.728116
 H        -0.559177         1.024013        -0.274371
 H        -0.340107        -0.692084        -0.961422
 H         2.417037         0.901902        -2.075597
 H         2.108193         2.040889        -0.708113
 H         4.739209         2.157426        -0.157876
 H         2.288259         0.837110         2.093889
