19
Iteration:  1510
 C         4.190463        -1.788614         0.754250
 C         3.253271        -0.875092         0.207391
 O         2.021133        -1.272765        -0.474285
 C         1.388777        -0.047197        -0.041908
 C        -0.103991         0.004237        -0.030981
 C         2.117984         0.983866        -0.979835
 C         3.394446         0.653876        -0.128925
 O         4.675656         1.337966         0.018782
 C         2.489457         0.201636         0.981121
 H         3.574339        -2.645229         1.238177
 H         4.746213        -2.381456         0.040916
 H         4.678832        -1.432568         1.662889
 H        -0.495760        -0.951662         0.309691
 H        -0.286355         0.838279         0.521248
 H        -0.546083        -0.020060        -1.040760
 H         2.105995         0.908386        -2.113247
 H         1.909011         1.965293        -0.673570
 H         4.510633         2.078319         0.636730
 H         2.626004         0.569804         2.021692
