19
Iteration:  2247
 C         4.132484        -1.763978         0.753864
 C         3.163991        -0.807926         0.274641
 O         2.058296        -1.344473        -0.429449
 C         1.439795         0.000554        -0.062330
 C        -0.111046        -0.043447        -0.069231
 C         2.198383         1.073170        -0.943612
 C         3.439347         0.649243        -0.104951
 O         4.655227         1.254406        -0.088395
 C         2.451162         0.248240         1.059523
 H         3.577293        -2.608357         1.165704
 H         4.601620        -2.283760        -0.102281
 H         4.968344        -1.532347         1.432892
 H        -0.393774        -0.824086         0.748796
 H        -0.584499         0.866041         0.214054
 H        -0.241226        -0.254085        -1.102832
 H         2.231251         0.931357        -1.997878
 H         1.740467         2.058070        -0.749801
 H         4.488459         2.215806         0.074209
 H         2.363424         0.166091         2.161284
