19
Iteration:  1794charge 0 multiplicity 1
 C         4.354551        -1.734072         0.521339
 C         3.207149        -0.791471         0.355291
 O         1.966668        -1.346669        -0.332969
 C         1.371635        -0.005089        -0.076037
 C        -0.111522         0.014333        -0.143834
 C         2.263029         1.025534        -0.991967
 C         3.327118         0.689723        -0.036681
 O         4.647085         1.160778         0.029991
 C         2.362496         0.240133         1.098072
 H         4.212458        -2.335093         1.489774
 H         4.427220        -2.339842        -0.370163
 H         5.204211        -1.210752         0.858794
 H        -0.643351        -0.653799         0.569326
 H        -0.478030         1.018347        -0.008668
 H        -0.418523        -0.414906        -1.121350
 H         2.440934         0.662681        -2.063226
 H         1.754833         1.963595        -0.968032
 H         4.817879         2.121951         0.134594
 H         2.298405         0.451767         2.077866
