19
Iteration:  1660
 C         4.194336        -1.779035         0.697283
 C         3.129556        -0.837736         0.282449
 O         2.053529        -1.305680        -0.430369
 C         1.431577        -0.036416        -0.063429
 C        -0.049065         0.020028        -0.069694
 C         2.209972         0.943423        -0.996650
 C         3.377731         0.681830        -0.110518
 O         4.654641         1.278035        -0.016350
 C         2.418047         0.232580         1.076021
 H         3.701660        -2.700465         1.140528
 H         4.848582        -1.920190        -0.172351
 H         5.026793        -1.474451         1.396817
 H        -0.428110        -0.826247         0.582611
 H        -0.488703         0.889573         0.510681
 H        -0.473071         0.065948        -1.073639
 H         2.172231         0.675431        -2.104681
 H         1.791479         1.989826        -0.881614
 H         4.467532         2.212437         0.178868
 H         2.241314         0.395199         2.239475
