19
Iteration:   916charge 0 multiplicity 1
 C         4.299689        -1.691320         0.551662
 C         3.120239        -0.809239         0.359224
 O         2.107444        -1.278231        -0.522247
 C         1.400824         0.025801        -0.131565
 C        -0.074367        -0.024329        -0.043947
 C         2.193956         0.939939        -1.020523
 C         3.297953         0.707068         0.006299
 O         4.606985         1.130045         0.071578
 C         2.378541         0.249565         1.147834
 H         4.088868        -2.653019         0.978090
 H         4.750950        -1.936980        -0.464621
 H         5.124418        -1.259278         1.119533
 H        -0.446662        -1.042761         0.337370
 H        -0.464379         0.704330         0.701809
 H        -0.458611         0.402716        -0.995798
 H         2.233602         0.502789        -2.033261
 H         1.998621         2.050430        -1.068012
 H         4.631329         2.058669         0.331826
 H         2.438048         0.334330         2.334697
