19
Iteration:  2167
 C         4.363195        -1.797984         0.616930
 C         3.130040        -0.838437         0.361505
 O         2.055197        -1.416252        -0.394384
 C         1.403813         0.052886        -0.144892
 C        -0.139421         0.100432        -0.005491
 C         2.242718         0.974745        -1.098259
 C         3.343130         0.725526        -0.017058
 O         4.604590         1.219029         0.009275
 C         2.357169         0.209201         1.064699
 H         4.226384        -2.516135         1.352048
 H         4.468023        -2.211172        -0.353168
 H         5.236488        -1.222399         0.897757
 H        -0.383165        -0.566113         0.733152
 H        -0.498087         1.124124         0.229478
 H        -0.651759        -0.344734        -0.930308
 H         2.465922         0.692896        -2.083837
 H         2.135612         2.017967        -1.005864
 H         4.697708         2.130023         0.378596
 H         2.067739         0.490931         2.074032
