19
Iteration:  2637charge 0 multiplicity 1
 C         4.373935        -1.756003         0.551819
 C         3.071457        -0.827083         0.410090
 O         2.010175        -1.404600        -0.423752
 C         1.433074        -0.042229        -0.104737
 C        -0.085342         0.153856        -0.041673
 C         2.280616         0.939112        -1.059642
 C         3.311592         0.734060         0.070728
 O         4.643032         1.221457        -0.040163
 C         2.324126         0.200000         1.080579
 H         4.062369        -2.668856         1.078689
 H         4.784187        -1.958695        -0.480211
 H         5.023879        -1.105597         1.077681
 H        -0.315180        -0.529403         0.760245
 H        -0.267244         1.106019         0.321747
 H        -0.605057        -0.287645        -1.039623
 H         2.513177         0.590304        -2.015739
 H         1.817683         1.870906        -1.030149
 H         4.838710         2.148920         0.267009
 H         1.911741         0.499782         2.057263
