19
Iteration:  2873
 C         4.301816        -1.788535         0.675964
 C         3.192274        -0.831536         0.348663
 O         2.045420        -1.274444        -0.467880
 C         1.389776         0.035982        -0.135792
 C        -0.180395        -0.046130        -0.057938
 C         2.137060         1.066516        -1.010718
 C         3.378898         0.578298        -0.112185
 O         4.640498         1.195748         0.082669
 C         2.536262         0.264503         1.031985
 H         3.818450        -2.666918         1.132820
 H         5.045160        -2.121556        -0.060855
 H         4.894854        -1.279090         1.467542
 H        -0.604520        -0.646120         0.778569
 H        -0.586471         1.042949         0.184578
 H        -0.649751        -0.551623        -0.901066
 H         2.074813         0.925653        -2.056846
 H         1.812068         2.044096        -0.691195
 H         4.549074         2.101144        -0.200867
 H         2.340437         0.620352         2.087162
