19
Iteration:   549charge 0 multiplicity 1
 C         4.236418        -1.721674         0.478061
 C         3.127085        -0.867518         0.308819
 O         2.005295        -1.292565        -0.423470
 C         1.405143         0.011895        -0.032613
 C        -0.030289        -0.035991        -0.078991
 C         2.278430         0.927060        -1.009812
 C         3.358801         0.744798         0.003178
 O         4.665003         1.280634         0.045645
 C         2.335843         0.217160         1.130083
 H         4.056982        -2.698157         1.016123
 H         4.539667        -1.984968        -0.496271
 H         5.012356        -1.231536         0.985466
 H        -0.507977        -0.802864         0.633230
 H        -0.491650         0.914259         0.369096
 H        -0.090544        -0.165868        -1.179056
 H         2.358019         0.250834        -1.899348
 H         1.919571         1.976987        -1.081582
 H         4.642330         2.173490         0.478437
 H         2.030707         0.017061         2.096481
