19
Iteration:  4669
 C         4.145156        -1.912521         0.713582
 C         3.224777        -0.824327         0.258191
 O         2.065355        -1.271325        -0.399085
 C         1.364283         0.105483        -0.076607
 C        -0.184400        -0.192440        -0.032329
 C         2.156485         1.068211        -1.017308
 C         3.401345         0.754003        -0.110154
 O         4.665617         1.368045         0.031502
 C         2.549919         0.288818         1.031859
 H         3.545220        -2.850725         1.022113
 H         4.882495        -2.201782         0.011215
 H         4.735970        -1.482661         1.579174
 H        -0.500957        -0.825804         0.872554
 H        -0.753173         0.733957         0.017447
 H        -0.292631        -0.763928        -0.881514
 H         2.332301         0.686656        -2.016299
 H         1.749189         2.096229        -0.970768
 H         5.121074         0.714351        -0.554448
 H         2.328761         0.481300         2.055775
