19
Iteration:  3510charge 0 multiplicity 1
 C         4.311610        -1.725850         0.761029
 C         3.139246        -0.871850         0.376765
 O         1.973289        -1.284302        -0.363981
 C         1.403537        -0.056983        -0.132984
 C        -0.116673        -0.031319        -0.100768
 C         2.219715         1.049174        -1.007975
 C         3.361563         0.649109        -0.167824
 O         4.670520         1.221884        -0.032765
 C         2.455499         0.294339         1.025399
 H         3.795715        -2.573488         1.187340
 H         4.645049        -2.168562        -0.198641
 H         5.230541        -1.417577         1.308198
 H        -0.488310        -1.004955         0.383566
 H        -0.575791         0.827279         0.407633
 H        -0.438661        -0.093133        -1.259883
 H         2.294894         0.816106        -2.052654
 H         1.899571         2.019442        -0.656224
 H         4.405954         2.060554         0.447189
 H         2.369463         0.416885         2.193595
