19
Iteration:  3531
 C         4.317518        -1.753712         0.621125
 C         3.160304        -0.907519         0.310933
 O         2.029309        -1.342562        -0.317970
 C         1.390927         0.112111        -0.110906
 C        -0.149935        -0.061444        -0.170998
 C         2.251501         1.025952        -1.009557
 C         3.380013         0.643379         0.018047
 O         4.660895         1.217409        -0.103330
 C         2.305422         0.299990         1.144851
 H         3.930777        -2.494128         1.303789
 H         4.805874        -2.261893        -0.206277
 H         4.997649        -1.102172         1.256740
 H        -0.431274        -0.872350         0.572899
 H        -0.615034         0.889237         0.128447
 H        -0.483477        -0.481680        -1.190169
 H         2.427403         0.747527        -2.034180
 H         1.977878         2.050690        -0.839376
 H         4.776617         2.040480         0.351230
 H         2.430608         0.741366         2.212723
