19
Iteration:  3326
 C         4.195647        -1.733821         0.714222
 C         3.194696        -0.797279         0.224351
 O         2.034661        -1.341743        -0.376916
 C         1.423867        -0.066550        -0.081674
 C        -0.068801         0.055938        -0.087726
 C         2.179565         0.966749        -1.111816
 C         3.304624         0.644537        -0.078737
 O         4.708445         1.220518         0.058189
 C         2.405536         0.248366         1.071829
 H         3.749230        -2.451850         1.420533
 H         4.781605        -2.115289        -0.160166
 H         4.879502        -1.012725         1.206696
 H        -0.404315        -0.688345         0.638776
 H        -0.315356         0.890925         0.419467
 H        -0.622719        -0.032959        -1.062144
 H         2.318333         0.637039        -2.156933
 H         1.787698         1.972071        -0.837961
 H         4.549014         2.161744         0.134649
 H         2.499947         0.320509         2.148427
