19
Iteration:   147
 C         4.156540        -1.840569         0.722429
 C         3.122643        -0.958971         0.257127
 O         1.931037        -1.283884        -0.557886
 C         1.455012         0.015331        -0.128940
 C        -0.065091        -0.159584         0.046545
 C         2.285023         1.100429        -0.912044
 C         3.437365         0.673474        -0.143100
 O         4.565346         1.402825         0.173277
 C         2.539995         0.260962         0.921378
 H         3.683258        -2.735154         1.259370
 H         4.720749        -2.246519        -0.150267
 H         4.808240        -1.279557         1.497546
 H        -0.323881        -1.014578         0.708406
 H        -0.611988         0.759754         0.410398
 H        -0.574331        -0.285621        -0.987114
 H         2.424484         1.148183        -2.046874
 H         1.884931         2.100650        -0.599247
 H         5.187463         1.446279        -0.603346
 H         2.408952         0.678830         1.962365
