19
Iteration:  3411
 C         4.264915        -1.806304         0.682628
 C         3.260234        -0.843044         0.292701
 O         1.999623        -1.220896        -0.391926
 C         1.367256         0.013380        -0.084972
 C        -0.158112        -0.026514        -0.148378
 C         2.158780         0.917132        -0.970627
 C         3.382684         0.712805        -0.071696
 O         4.674502         1.197497         0.008873
 C         2.488457         0.293823         1.034291
 H         3.721753        -2.435929         1.339557
 H         4.673432        -2.415472        -0.104235
 H         5.120100        -1.366724         1.289402
 H        -0.583670        -0.530626         0.765961
 H        -0.553929         1.021139        -0.250726
 H        -0.468515        -0.719574        -0.994788
 H         2.285849         0.610265        -2.019649
 H         1.656353         1.904873        -0.876265
 H         4.528059         2.023655         0.574649
 H         2.400336         0.711876         2.053557
