19
Iteration:  4245
 C         4.337718        -1.772811         0.652087
 C         3.166502        -0.814483         0.440593
 O         1.993995        -1.389477        -0.364111
 C         1.474607        -0.043003        -0.147191
 C        -0.088583         0.074107        -0.072934
 C         2.314161         0.960347        -1.072302
 C         3.339217         0.650890        -0.051548
 O         4.514125         1.321660        -0.055848
 C         2.359681         0.211214         1.040831
 H         3.748805        -2.699466         0.857414
 H         4.894941        -1.739389        -0.300634
 H         5.124296        -1.430054         1.420707
 H        -0.488395        -0.792506         0.561525
 H        -0.437024         0.913757         0.636199
 H        -0.469656         0.094782        -1.076709
 H         2.440773         0.510644        -2.046525
 H         1.951674         2.016924        -1.092946
 H         4.650176         1.798878         0.815218
 H         2.341825         0.775600         1.926625
