19
Iteration:   519
 C         4.322831        -1.869177         0.697142
 C         3.185298        -0.844178         0.241946
 O         2.058733        -1.194482        -0.442362
 C         1.344964        -0.014414        -0.151757
 C        -0.158842        -0.110259        -0.058565
 C         2.234943         1.152829        -0.936416
 C         3.365662         0.609928        -0.097773
 O         4.603248         1.239926         0.017220
 C         2.471910         0.206504         1.068930
 H         3.778201        -2.745858         1.233005
 H         4.843195        -2.265024        -0.176518
 H         4.878761        -1.250994         1.380903
 H        -0.411243        -1.104596         0.404117
 H        -0.523645         0.867754         0.444487
 H        -0.690706        -0.053246        -1.005170
 H         2.172567         1.004338        -2.068988
 H         1.925963         2.119466        -0.556871
 H         4.600790         2.166322         0.337476
 H         2.368228         0.522173         2.100866
