19
Iteration:   164charge 0 multiplicity 1
 C         4.140032        -1.791017         0.674289
 C         3.229386        -0.778564         0.168281
 O         2.047772        -1.275450        -0.491119
 C         1.367502         0.010957        -0.064352
 C        -0.099849        -0.101617        -0.032413
 C         2.156973         1.079171        -1.009543
 C         3.415384         0.648273        -0.099429
 O         4.667257         1.303334         0.166818
 C         2.431282         0.193678         1.077515
 H         3.626185        -2.492836         1.289460
 H         4.782098        -2.333035        -0.055914
 H         4.863391        -1.378915         1.345021
 H        -0.371418        -1.006677         0.487831
 H        -0.500660         0.796587         0.381878
 H        -0.432164        -0.287769        -1.031748
 H         2.067399         0.893366        -2.057049
 H         1.931030         2.117301        -0.728325
 H         5.104828         1.418683        -0.711781
 H         2.531462         0.267466         2.159023
