19
Iteration:  1373
 C         4.236039        -1.896860         0.645741
 C         3.206340        -0.826167         0.294993
 O         2.052939        -1.261848        -0.534654
 C         1.448153        -0.037633        -0.159751
 C        -0.044053        -0.012256         0.044874
 C         2.269567         0.975146        -0.984295
 C         3.369992         0.685004         0.040887
 O         4.523117         1.364349        -0.048566
 C         2.388274         0.190454         1.073940
 H         3.870934        -2.448506         1.458740
 H         4.336815        -2.500974        -0.266669
 H         5.081071        -1.549296         1.153057
 H        -0.780998        -0.475916         0.740324
 H        -0.155935         1.164037        -0.004403
 H        -0.597010        -0.480734        -0.781668
 H         2.460661         0.937221        -2.057135
 H         1.875871         2.050184        -0.868190
 H         4.727939         1.755173         0.819513
 H         2.205154         0.541514         2.110570
