19
Iteration:  4765charge 0 multiplicity 1
 C         4.372305        -1.765646         0.665443
 C         3.160822        -0.899547         0.277485
 O         1.980459        -1.371857        -0.364169
 C         1.402475        -0.027544        -0.087895
 C        -0.106554         0.057245        -0.105335
 C         2.214335         1.014460        -0.950846
 C         3.367112         0.661254        -0.106222
 O         4.564054         1.351506         0.066938
 C         2.402794         0.236674         1.056262
 H         4.347452        -2.372775         1.561994
 H         4.370652        -2.507318        -0.114083
 H         5.410311        -1.325573         0.529010
 H        -0.594300        -0.955318         0.209293
 H        -0.606751         0.866254         0.477425
 H        -0.395112         0.120060        -1.154828
 H         2.170127         0.741790        -2.004145
 H         1.930941         2.077390        -0.764128
 H         5.277414         1.283652        -0.553274
 H         2.341630         0.640841         2.049814
