19
Iteration:  1186charge 0 multiplicity 1
 C         4.174529        -1.853441         0.648340
 C         3.100445        -0.876161         0.268654
 O         2.033449        -1.254072        -0.568895
 C         1.417765         0.060592        -0.197036
 C        -0.013920        -0.086594         0.084881
 C         2.301636         1.007165        -0.978909
 C         3.372525         0.636925         0.017988
 O         4.649735         1.361954         0.030643
 C         2.360135         0.233785         1.026263
 H         3.936269        -2.524648         1.417858
 H         4.360131        -2.494579        -0.298378
 H         5.025191        -1.283099         1.048901
 H        -0.092469        -0.520759         1.122747
 H        -0.491617         0.851690        -0.101324
 H        -0.360768        -0.971228        -0.517773
 H         2.466031         0.719008        -2.062983
 H         1.811599         1.928974        -0.796030
 H         4.575635         2.079374         0.711255
 H         2.014864         0.591301         2.093342
