19
Iteration:  4622
 C         4.290635        -1.827283         0.807950
 C         3.215475        -0.901161         0.288460
 O         2.041741        -1.363733        -0.447319
 C         1.362539        -0.001710        -0.139929
 C        -0.112155         0.024681        -0.076943
 C         2.243058         1.139744        -0.933154
 C         3.341259         0.727512         0.047773
 O         4.579614         1.353539        -0.221133
 C         2.375421         0.165893         1.080119
 H         3.839219        -2.655235         1.323875
 H         4.953074        -2.263850        -0.023217
 H         4.991972        -1.234610         1.464589
 H        -0.341124        -0.906161         0.405506
 H        -0.440605         0.840170         0.605931
 H        -0.456805        -0.095797        -1.153707
 H         2.183558         0.953827        -1.991979
 H         1.809311         2.084117        -0.630998
 H         5.348894         0.849645         0.060724
 H         2.301654         0.230551         2.191596
