19
Iteration:  1301charge 0 multiplicity 1
 C         4.295684        -1.744796         0.634026
 C         3.188077        -0.830584         0.297653
 O         2.064483        -1.264473        -0.412323
 C         1.430336         0.027245        -0.097681
 C        -0.123997        -0.039004        -0.054249
 C         2.097702         1.079598        -1.050094
 C         3.372981         0.664917        -0.104235
 O         4.640150         1.139242         0.082271
 C         2.474863         0.192989         1.074376
 H         3.875498        -2.732031         1.164110
 H         4.796307        -2.176986        -0.247031
 H         4.874434        -1.285895         1.539719
 H        -0.499735        -1.062741        -0.073909
 H        -0.653544         0.651585         0.682617
 H        -0.602326         0.200043        -1.035605
 H         2.048413         0.971353        -2.150907
 H         1.975610         2.177555        -0.812059
 H         4.464159         2.114423         0.094101
 H         2.357099         0.501004         2.182042
