19
Iteration:   467
 C         4.247069        -1.819553         0.759403
 C         3.230632        -0.782233         0.184121
 O         2.018979        -1.219184        -0.588728
 C         1.361481         0.023417        -0.074597
 C        -0.136325        -0.096439         0.057503
 C         2.320661         1.059574        -0.964041
 C         3.360993         0.643690        -0.002682
 O         4.624241         1.284742        -0.037658
 C         2.371888         0.155723         1.072876
 H         3.594344        -2.545896         1.324175
 H         4.760478        -2.233518        -0.205704
 H         5.119296        -1.378439         1.363778
 H        -0.414204        -0.944570         0.658717
 H        -0.659407         0.841949         0.346172
 H        -0.470095        -0.387567        -0.923663
 H         2.545018         0.814282        -2.028775
 H         2.067392         2.139404        -0.972667
 H         4.595312         2.195211         0.364239
 H         2.225308        -0.190705         2.155123
