19
Iteration:  2324charge 0 multiplicity 1
 C         4.331943        -1.725362         0.647220
 C         3.199024        -0.792032         0.226835
 O         1.896600        -1.384497        -0.367616
 C         1.402912        -0.026134        -0.047922
 C        -0.145996         0.018345        -0.047964
 C         2.175459         1.017597        -1.095980
 C         3.369767         0.735506        -0.182747
 O         4.643805         1.130473         0.145289
 C         2.504017         0.302888         1.011480
 H         4.058898        -2.536929         1.373656
 H         4.984264        -2.153559        -0.143351
 H         5.063542        -1.187483         1.236051
 H        -0.608060        -0.820397         0.717549
 H        -0.379512         1.050196         0.226516
 H        -0.477303        -0.223182        -1.091511
 H         2.198973         0.718466        -2.121447
 H         1.803582         2.040953        -0.920371
 H         4.736659         2.009962         0.473028
 H         2.652476         0.354519         2.133653
