19
Iteration:  1207charge 0 multiplicity 1
 C         4.229682        -1.814470         0.641773
 C         3.253551        -0.801572         0.243327
 O         2.032267        -1.295848        -0.444690
 C         1.382057        -0.014261        -0.116575
 C        -0.120820        -0.044190         0.010737
 C         2.201528         1.129591        -1.080165
 C         3.348699         0.736537        -0.104066
 O         4.619558         1.242883         0.121697
 C         2.485860         0.171488         1.009735
 H         3.771326        -2.452606         1.330713
 H         4.377217        -2.503797        -0.216599
 H         5.021528        -1.417220         1.253748
 H        -0.465296        -0.390863         1.039729
 H        -0.440759         0.929762        -0.345850
 H        -0.545613        -0.852454        -0.689949
 H         2.284852         0.705015        -2.141303
 H         1.859120         2.126700        -0.971744
 H         4.529605         1.783318         0.906216
 H         2.546992         0.131355         2.198466
