19
Iteration:  4241charge 0 multiplicity 1
 C         4.341767        -1.753700         0.650413
 C         3.212865        -0.836536         0.404811
 O         1.965436        -1.391211        -0.338094
 C         1.437980        -0.050406        -0.147185
 C        -0.116371         0.071812        -0.048078
 C         2.353023         0.999597        -1.089447
 C         3.300330         0.652973        -0.073600
 O         4.534281         1.336835        -0.035887
 C         2.395285         0.182223         1.047024
 H         3.920375        -2.691899         0.996700
 H         4.891019        -1.883582        -0.272659
 H         5.046761        -1.518466         1.475399
 H        -0.584097        -0.758010         0.377711
 H        -0.495724         0.880937         0.537914
 H        -0.506038         0.110015        -1.092074
 H         2.478750         0.489371        -2.048624
 H         1.940259         1.981738        -1.153617
 H         4.682427         1.857132         0.736655
 H         2.259931         0.772132         1.957005
