19
Iteration:   990charge 0 multiplicity 1
 C         4.252045        -1.942177         0.617888
 C         3.214873        -0.798052         0.274822
 O         2.090529        -1.208459        -0.567769
 C         1.405177        -0.073536        -0.083940
 C        -0.138043        -0.040788        -0.072654
 C         2.201720         1.019625        -0.924776
 C         3.358106         0.781912         0.071556
 O         4.647387         1.336072        -0.067099
 C         2.339112         0.164276         1.159693
 H         3.925169        -2.520888         1.435035
 H         4.515327        -2.685688        -0.204639
 H         5.193700        -1.517275         1.078606
 H        -0.374095        -0.206244         0.980585
 H        -0.531471         0.871894        -0.326371
 H        -0.577913        -0.707501        -0.814548
 H         2.531580         0.648383        -1.911269
 H         1.729960         1.983068        -0.895888
 H         4.646338         2.206314         0.413497
 H         2.272264         0.121986         2.341787
