19
Iteration:  4618charge 0 multiplicity 1
 C         4.338482        -1.813508         0.797939
 C         3.230619        -0.866805         0.292826
 O         1.986810        -1.360800        -0.455043
 C         1.376730        -0.006028        -0.168816
 C        -0.123287         0.023656        -0.076947
 C         2.228093         1.096655        -0.921629
 C         3.353908         0.710755         0.028664
 O         4.596212         1.375689        -0.216512
 C         2.369549         0.147027         1.101218
 H         3.846227        -2.572242         1.431043
 H         4.978547        -2.297033         0.019064
 H         5.008752        -1.318142         1.452512
 H        -0.448365        -0.895213         0.427553
 H        -0.342675         0.861546         0.585727
 H        -0.556184         0.040731        -1.151365
 H         2.286339         0.972187        -2.053600
 H         1.824536         2.077487        -0.607131
 H         5.214353         0.722000         0.232893
 H         2.296602         0.241271         2.215361
