19
Iteration:   613charge 0 multiplicity 1
 C         4.332687        -1.735503         0.621813
 C         3.136372        -0.798459         0.227271
 O         1.906488        -1.296058        -0.521896
 C         1.430261         0.035354        -0.105534
 C        -0.022329        -0.024842        -0.073235
 C         2.157341         0.995256        -0.972268
 C         3.350521         0.689419         0.015968
 O         4.659642         1.258330         0.066672
 C         2.445128         0.097909         1.127472
 H         4.108031        -2.474715         1.454865
 H         4.581967        -2.349333        -0.295011
 H         5.154674        -1.065813         0.926070
 H        -0.432910        -0.381973         0.908232
 H        -0.525053         0.926975        -0.312143
 H        -0.380418        -0.626128        -0.920739
 H         2.364959         0.667100        -2.007982
 H         1.868442         2.070780        -0.785920
 H         4.512487         2.098207         0.508012
 H         2.458132         0.191370         2.166197
