19
Iteration:  3460
 C         4.201620        -1.822940         0.836811
 C         3.226694        -0.821275         0.325293
 O         1.955177        -1.374189        -0.563912
 C         1.387032        -0.021622        -0.258765
 C        -0.064557        -0.004630         0.062659
 C         2.270183         0.958809        -1.057037
 C         3.387102         0.690847        -0.052657
 O         4.666818         1.326117        -0.025401
 C         2.363777         0.270348         1.078991
 H         3.856299        -2.707672         1.484374
 H         4.798006        -2.150002        -0.060987
 H         4.956287        -1.237021         1.360412
 H        -0.327806        -0.800693         0.715310
 H        -0.092808         0.935181         0.610728
 H        -0.748543        -0.022464        -0.736569
 H         2.308761         0.642598        -2.140547
 H         2.049520         2.052278        -0.858195
 H         4.350087         2.201893         0.150220
 H         2.366407         0.420933         2.127454
