19
Iteration:  1422
 C         4.298031        -1.804773         0.526733
 C         3.205967        -0.811292         0.238696
 O         1.982994        -1.247023        -0.349916
 C         1.356801        -0.065160         0.002017
 C        -0.107893        -0.020462        -0.185986
 C         2.216417         1.066843        -0.986671
 C         3.326755         0.641531        -0.069606
 O         4.637950         1.179983         0.099706
 C         2.463951         0.262089         1.112566
 H         4.052359        -2.531212         1.384610
 H         4.689244        -2.196179        -0.436741
 H         5.084236        -1.145675         1.047686
 H        -0.592601        -0.597547         0.624511
 H        -0.559924         0.898705        -0.080558
 H        -0.456922        -0.649658        -0.997592
 H         2.379517         0.744575        -2.046434
 H         1.955965         2.078890        -1.016577
 H         4.508373         2.146710         0.265132
 H         2.613562         0.658258         2.071057
