19
Iteration:  2597charge 0 multiplicity 1
 C         4.251537        -1.763488         0.744160
 C         3.169225        -0.875079         0.205100
 O         1.979458        -1.322310        -0.439561
 C         1.384498         0.057212        -0.047178
 C        -0.127469        -0.028411        -0.027891
 C         2.180643         1.044312        -1.019164
 C         3.387137         0.656488        -0.145219
 O         4.668907         1.207631         0.091837
 C         2.518838         0.245177         0.991251
 H         3.974243        -2.383740         1.645864
 H         4.495757        -2.591167         0.034165
 H         5.175955        -1.219222         0.806895
 H        -0.412043        -0.961679         0.591610
 H        -0.817100         0.769621         0.277900
 H        -0.264388        -0.070742        -1.086390
 H         2.144832         0.925746        -2.156249
 H         1.646290         2.043488        -0.784450
 H         4.530472         2.143574         0.280660
 H         2.712320         0.703600         1.998544
