19
Iteration:   659charge 0 multiplicity 1
 C         4.219532        -1.908033         0.770945
 C         3.134078        -0.776927         0.339347
 O         2.060010        -1.216894        -0.586728
 C         1.476195         0.024474        -0.146183
 C        -0.015763        -0.147035         0.003780
 C         2.075949         1.141200        -0.900026
 C         3.437204         0.685701        -0.139153
 O         4.716295         1.244089        -0.008321
 C         2.343582         0.219792         1.038599
 H         3.605256        -2.815550         1.194359
 H         4.621742        -2.315279        -0.142378
 H         5.011506        -1.616859         1.434740
 H        -0.003878        -1.147153         0.553976
 H        -0.690416         0.645540         0.548088
 H        -0.596366        -0.232780        -0.923705
 H         1.877487         1.022771        -2.024079
 H         1.684753         2.113123        -0.481320
 H         4.564027         2.191734         0.089382
 H         2.197104         0.418259         2.112716
