19
Iteration:  4981charge 0 multiplicity 1
 C         4.209355        -1.851406         0.767271
 C         3.217131        -0.766317         0.297949
 O         2.081641        -1.273428        -0.546721
 C         1.360668         0.018200        -0.153208
 C        -0.039375        -0.009249        -0.036064
 C         2.208372         1.038568        -0.841782
 C         3.375936         0.620895        -0.057536
 O         4.537293         1.390559        -0.017756
 C         2.423103         0.148287         1.033418
 H         4.123292        -2.336566         1.691545
 H         4.042543        -2.802500         0.125636
 H         5.379069        -1.702780         0.622054
 H        -0.504853        -0.910520         0.364597
 H        -0.430898         0.916444         0.434104
 H        -0.384464         0.021610        -1.121225
 H         2.105588         0.932151        -1.933710
 H         1.949276         2.125039        -0.631985
 H         5.254051         0.724184        -0.300290
 H         2.229746         0.348112         2.116486
