19
Iteration:  2603
 C         4.247722        -1.728049         0.692490
 C         3.187455        -0.913577         0.243192
 O         2.026662        -1.287331        -0.435896
 C         1.399831         0.034756         0.005236
 C        -0.137470         0.005354        -0.035473
 C         2.215297         1.037598        -1.062975
 C         3.379688         0.630950        -0.156764
 O         4.647231         1.187218         0.089262
 C         2.473075         0.230731         1.023118
 H         3.980972        -2.242992         1.607987
 H         4.452603        -2.464830        -0.098399
 H         5.187233        -1.182952         0.925664
 H        -0.491401        -0.845105         0.472643
 H        -0.722728         0.846948         0.352144
 H        -0.573639        -0.227847        -1.109448
 H         2.081363         0.904616        -2.109584
 H         1.749699         1.947050        -0.806471
 H         4.462240         2.151775         0.307149
 H         2.640591         0.699778         1.957043
