19
Iteration:  3338charge 0 multiplicity 1
 C         4.287783        -1.701824         0.687342
 C         3.184543        -0.774149         0.360528
 O         2.028399        -1.277612        -0.407686
 C         1.356525         0.004156        -0.142223
 C        -0.143377         0.052514        -0.062691
 C         2.214741         0.872692        -1.009615
 C         3.421037         0.677417        -0.126687
 O         4.626965         1.177917         0.060734
 C         2.400212         0.212542         1.068734
 H         4.026808        -2.598781         1.337479
 H         4.573673        -2.227824        -0.270513
 H         5.155700        -1.254866         1.165798
 H        -0.510618        -0.765616         0.544271
 H        -0.517990         1.004465         0.095753
 H        -0.465450        -0.239105        -1.118058
 H         2.199307         0.718755        -2.112080
 H         1.951937         1.964281        -0.985013
 H         4.819125         2.109381        -0.140909
 H         2.354480         0.325915         2.193860
