19
Iteration:   437charge 0 multiplicity 1
 C         4.222875        -1.805929         0.574274
 C         3.125902        -0.919080         0.300471
 O         2.043232        -1.257135        -0.462398
 C         1.420273        -0.048083        -0.142690
 C        -0.044148        -0.039476        -0.004651
 C         2.226783         1.002181        -1.006719
 C         3.366297         0.631177        -0.037946
 O         4.611567         1.298718         0.108298
 C         2.405058         0.275297         1.048468
 H         4.102946        -2.607809         1.156882
 H         4.586684        -2.124042        -0.415029
 H         5.094136        -1.260036         0.971158
 H        -0.480351        -0.624750         0.785160
 H        -0.417090         0.927364         0.140211
 H        -0.410677        -0.483599        -0.992908
 H         2.346535         1.045454        -2.066618
 H         1.903300         2.045077        -0.717323
 H         4.438028         2.213876         0.325771
 H         2.413655         0.608901         2.163222
