19
Iteration:  3292
 C         4.220303        -1.845383         0.850522
 C         3.181574        -0.884177         0.317441
 O         2.039512        -1.269966        -0.473700
 C         1.375368         0.030522        -0.164109
 C        -0.086978         0.025509         0.006470
 C         2.237708         0.987301        -1.107184
 C         3.431008         0.577915        -0.099993
 O         4.611474         1.361284        -0.084229
 C         2.395771         0.225603         1.050285
 H         3.960798        -2.728906         1.394994
 H         4.917063        -2.298907         0.123282
 H         4.953231        -1.296429         1.552766
 H        -0.317127        -0.900410         0.530300
 H        -0.306658         0.791433         0.632012
 H        -0.810631        -0.001633        -0.839753
 H         2.224436         0.927502        -2.206429
 H         1.851926         2.050608        -0.897857
 H         4.370619         1.699513         0.773239
 H         2.416130         0.455542         2.066985
