19
Iteration:  2494
 C         4.322917        -1.721568         0.579098
 C         3.180873        -0.870141         0.244815
 O         1.939628        -1.305097        -0.331303
 C         1.399615        -0.014268        -0.095666
 C        -0.135488         0.059959        -0.028110
 C         2.172264         0.931480        -1.015630
 C         3.361283         0.560614        -0.146563
 O         4.655063         1.190819         0.121859
 C         2.461816         0.344131         0.975914
 H         4.148512        -2.656056         1.082398
 H         5.178441        -1.656910        -0.098660
 H         4.643267        -1.028817         1.461140
 H        -0.541600        -0.624287         0.627825
 H        -0.477960         1.085752         0.086427
 H        -0.376286        -0.368547        -1.100861
 H         2.246110         0.752682        -2.095030
 H         2.030571         1.935283        -0.715507
 H         4.574757         2.139263         0.322688
 H         2.625958         0.322979         2.073853
