19
Iteration:  1170charge 0 multiplicity 1
 C         4.188372        -1.902109         0.643455
 C         3.105269        -0.867808         0.359026
 O         2.079432        -1.215706        -0.589343
 C         1.420650        -0.002923        -0.180603
 C        -0.116083        -0.152022         0.070066
 C         2.340646         1.040099        -0.950754
 C         3.441872         0.612378        -0.003316
 O         4.602311         1.347170         0.010268
 C         2.334254         0.273276         1.038464
 H         3.787298        -2.594075         1.449836
 H         4.555825        -2.361272        -0.221743
 H         5.138507        -1.376073         0.851739
 H        -0.363171        -0.550023         1.047044
 H        -0.571676         0.893942         0.237578
 H        -0.708319        -0.595894        -0.733941
 H         2.471900         0.956965        -2.033566
 H         2.313912         2.162862        -0.817358
 H         4.415280         2.274014         0.217834
 H         2.205956         0.637633         2.003204
