19
Iteration:  4967
 C         4.162771        -1.886537         0.663686
 C         3.173883        -0.877286         0.295271
 O         2.098803        -1.232401        -0.502834
 C         1.441220        -0.022508        -0.047169
 C        -0.126908        -0.094153        -0.138566
 C         2.165146         1.066737        -0.944893
 C         3.372657         0.704697        -0.030283
 O         4.586654         1.346155         0.007736
 C         2.495373         0.267019         1.152030
 H         3.951472        -2.142027         1.711365
 H         4.115976        -2.703639        -0.040511
 H         5.135782        -1.452368         0.611867
 H        -0.545552        -0.900841         0.417510
 H        -0.581164         0.786501         0.416299
 H        -0.536705        -0.013585        -1.252835
 H         2.282483         0.841455        -2.013966
 H         1.843867         2.054187        -0.719371
 H         5.308310         0.842282        -0.362281
 H         2.579560         0.545464         2.212479
