19
Iteration:   231
 C         4.375931        -1.786949         0.524304
 C         3.162487        -0.869859         0.314017
 O         1.898316        -1.364083        -0.383336
 C         1.379380        -0.011869        -0.075867
 C        -0.174312         0.062904        -0.147093
 C         2.251461         1.020731        -1.013790
 C         3.386153         0.625710        -0.053156
 O         4.599343         1.410331         0.106870
 C         2.471990         0.179566         1.089086
 H         4.137229        -2.530229         1.275445
 H         4.757837        -2.114359        -0.408247
 H         5.216555        -1.208062         1.034751
 H        -0.603874        -0.671978         0.473377
 H        -0.580572         0.983906         0.077458
 H        -0.422656        -0.280987        -1.169150
 H         2.338757         0.876623        -2.046749
 H         1.915489         2.040674        -0.738211
 H         5.233201         0.789214         0.504913
 H         2.529845         0.302239         2.231234
