19
Iteration:  2959charge 0 multiplicity 1
 C         4.217927        -1.837376         0.668083
 C         3.219972        -0.819332         0.315028
 O         2.005701        -1.265815        -0.385287
 C         1.411734         0.063895        -0.040142
 C        -0.070207        -0.007142        -0.086880
 C         2.186173         0.930393        -1.056769
 C         3.370561         0.652373        -0.146052
 O         4.607762         1.285515         0.080487
 C         2.487888         0.202235         1.023108
 H         3.902820        -2.574043         1.448319
 H         4.505992        -2.372584        -0.262925
 H         5.027918        -1.228295         1.179443
 H        -0.282408        -0.950036         0.445942
 H        -0.564112         0.972798         0.354224
 H        -0.411337        -0.073019        -1.101972
 H         2.021275         0.581764        -2.106444
 H         1.757889         1.935007        -1.040464
 H         4.321234         2.235367         0.244551
 H         2.750413         0.500780         2.060663
