19
Iteration:  1600
 C         4.397454        -1.685914         0.590845
 C         3.137597        -0.832051         0.268618
 O         1.909803        -1.312023        -0.397258
 C         1.408835        -0.012267        -0.031988
 C        -0.082374        -0.008330        -0.158285
 C         2.115787         1.014244        -0.993073
 C         3.362489         0.671138        -0.087087
 O         4.708826         1.121337         0.079205
 C         2.452483         0.300185         1.096933
 H         4.032666        -2.426449         1.334475
 H         4.566534        -2.575753        -0.078460
 H         5.207852        -0.980728         0.838343
 H        -0.452220        -0.573699         0.687015
 H        -0.413950         0.981008        -0.230945
 H        -0.466964        -0.633885        -1.004691
 H         2.160188         0.771391        -2.055707
 H         1.800372         1.987137        -0.654655
 H         4.592462         2.058247         0.388373
 H         2.299394         0.638481         2.093697
