19
Iteration:  1664
 C         4.184078        -1.773938         0.696710
 C         3.123591        -0.810384         0.302774
 O         2.061846        -1.328265        -0.431819
 C         1.413800        -0.018583        -0.092204
 C        -0.041656         0.010637        -0.030146
 C         2.213843         0.978806        -1.022236
 C         3.383261         0.638191        -0.136736
 O         4.643351         1.293825         0.009586
 C         2.468530         0.218567         1.097352
 H         3.552116        -2.660705         1.020996
 H         4.881586        -2.063932        -0.104581
 H         4.929734        -1.429025         1.396274
 H        -0.504226        -0.869369         0.511907
 H        -0.543612         0.850571         0.446017
 H        -0.470117         0.089321        -1.127160
 H         2.058819         0.619523        -2.107712
 H         1.826910         1.966843        -0.841186
 H         4.446358         2.253469         0.118861
 H         2.332589         0.436305         2.113984
