19
Iteration:  1360charge 0 multiplicity 1
 C         4.200394        -1.891179         0.707140
 C         3.251907        -0.805778         0.283410
 O         2.093725        -1.276526        -0.610509
 C         1.426971        -0.033940        -0.121123
 C        -0.099749         0.045099         0.052637
 C         2.263767         0.974699        -0.989160
 C         3.317103         0.704880         0.013723
 O         4.551087         1.354058        -0.049112
 C         2.378000         0.186502         1.097733
 H         3.685064        -2.500931         1.392824
 H         4.540432        -2.502168        -0.164765
 H         5.121769        -1.499937         0.998407
 H        -0.140695        -0.666147         0.874489
 H        -0.526398         0.967732         0.391538
 H        -0.482689        -0.210089        -0.939354
 H         2.500080         0.533125        -2.011847
 H         1.932854         1.994733        -0.947326
 H         4.866274         1.738970         0.788540
 H         2.056054         0.311219         2.086120
