19
Iteration:  4918
 C         4.289909        -1.781332         0.529676
 C         3.196489        -0.798609         0.398606
 O         1.996307        -1.306935        -0.383216
 C         1.376241         0.069878        -0.152970
 C        -0.121345         0.002490        -0.068972
 C         2.236353         0.943414        -1.026359
 C         3.353114         0.626916        -0.055244
 O         4.560310         1.240924         0.158981
 C         2.474380         0.239120         1.066403
 H         3.970357        -2.721440         1.011033
 H         4.676173        -1.828434        -0.513633
 H         5.189789        -1.285606         1.052817
 H        -0.387475        -0.626101         0.882168
 H        -0.659574         0.983663        -0.077591
 H        -0.329641        -0.479543        -0.981469
 H         2.467937         0.858362        -2.126271
 H         1.778846         1.964091        -0.765092
 H         5.033088         1.298359        -0.721996
 H         2.417821         0.832748         2.006590
