19
Iteration:  4823
 C         4.108240        -1.864954         0.690203
 C         3.142033        -0.774457         0.286204
 O         2.086381        -1.248264        -0.403683
 C         1.442790         0.023729        -0.133867
 C        -0.100661        -0.180300        -0.020742
 C         2.155456         1.074612        -1.043457
 C         3.425296         0.708421        -0.073832
 O         4.638551         1.363496        -0.018052
 C         2.465805         0.249407         1.154782
 H         3.521410        -2.731611         1.191501
 H         4.503514        -2.263217        -0.262614
 H         4.888448        -1.454191         1.303042
 H        -0.227525        -1.220805         0.379316
 H        -0.600246         0.607060         0.579910
 H        -0.441125        -0.115657        -1.055375
 H         2.203702         0.906801        -2.113655
 H         1.870715         2.098729        -0.857912
 H         5.311499         0.862297        -0.568805
 H         2.435415         0.209304         2.302458
