19
Iteration:  4709
 C         4.367755        -1.776468         0.594934
 C         3.147958        -0.899591         0.295163
 O         2.042373        -1.307517        -0.413306
 C         1.371814         0.014201        -0.189294
 C        -0.080599         0.082810         0.061593
 C         2.261288         0.867315        -1.075058
 C         3.360162         0.619924        -0.064037
 O         4.531997         1.340473         0.164864
 C         2.375572         0.273386         1.007288
 H         4.053387        -2.523116         1.281658
 H         4.829909        -2.251096        -0.317480
 H         5.174548        -1.282268         1.237066
 H        -0.350968        -0.305826         1.069105
 H        -0.518782         1.102845        -0.081717
 H        -0.714871        -0.535529        -0.688489
 H         2.112416         0.633796        -2.147206
 H         2.171109         1.946077        -0.803686
 H         5.102523         1.420858        -0.607465
 H         2.030419         0.652906         1.930552
