19
Iteration:  4911
 C         4.339714        -1.744539         0.577356
 C         3.196250        -0.848543         0.362029
 O         2.002434        -1.312329        -0.389895
 C         1.421844         0.071404        -0.160698
 C        -0.101512         0.044768        -0.048148
 C         2.171823         0.966092        -1.036366
 C         3.352461         0.636056        -0.039584
 O         4.564945         1.251516         0.151252
 C         2.423024         0.202002         1.065599
 H         4.087804        -2.815173         0.791098
 H         4.695381        -1.867701        -0.417048
 H         5.165360        -1.439397         1.103345
 H        -0.516280        -0.409901         0.836204
 H        -0.639402         1.005582        -0.088967
 H        -0.660543        -0.537315        -0.876714
 H         2.469720         0.702861        -2.040657
 H         1.827982         1.965056        -1.025977
 H         5.183846         1.320332        -0.642422
 H         2.390933         0.687032         2.010258
