19
Iteration:  1779
 C         4.324027        -1.654075         0.634398
 C         3.151294        -0.837534         0.189803
 O         1.960081        -1.301004        -0.310029
 C         1.379611        -0.067994        -0.033159
 C        -0.135026        -0.047241        -0.159292
 C         2.251994         1.057210        -0.986735
 C         3.363706         0.599805        -0.084927
 O         4.635189         1.124980         0.075835
 C         2.449609         0.275783         1.062408
 H         4.101623        -2.390289         1.444365
 H         4.620548        -2.235773        -0.296974
 H         5.261556        -0.981883         0.530920
 H        -0.654786        -0.500375         0.738221
 H        -0.369670         1.038052        -0.172961
 H        -0.299437        -0.334368        -1.155370
 H         2.275420         1.050899        -2.051243
 H         2.145191         2.117827        -0.636765
 H         4.327423         2.064168         0.128764
 H         2.373358         0.627229         2.213657
