19
Iteration:  1359charge 0 multiplicity 1
 C         4.197417        -1.894007         0.709922
 C         3.237248        -0.804151         0.277941
 O         2.100231        -1.283298        -0.607823
 C         1.433176        -0.017688        -0.118205
 C        -0.107331         0.044143         0.049065
 C         2.257976         0.977715        -0.983540
 C         3.319995         0.707368         0.003922
 O         4.558757         1.356584        -0.047365
 C         2.371158         0.177137         1.096591
 H         3.682374        -2.511515         1.436946
 H         4.552552        -2.466224        -0.184110
 H         5.145237        -1.484477         1.014768
 H        -0.113235        -0.668468         0.854657
 H        -0.476898         0.935312         0.433277
 H        -0.499787        -0.222267        -0.941844
 H         2.476863         0.524130        -2.024906
 H         1.949782         1.984659        -0.988959
 H         4.849455         1.725642         0.790300
 H         2.103996         0.295179         2.111347
