19
Iteration:  2579
 C         4.194205        -1.847103         0.757104
 C         3.223628        -0.870063         0.239468
 O         1.905827        -1.263099        -0.422535
 C         1.416405        -0.002613        -0.119172
 C        -0.052163        -0.143516        -0.098062
 C         2.179739         1.118593        -0.971627
 C         3.414131         0.726613        -0.123267
 O         4.702775         1.261437        -0.020368
 C         2.481987         0.265489         1.051721
 H         3.796154        -2.157078         1.712548
 H         4.302116        -2.712666         0.131959
 H         5.229416        -1.421480         1.026502
 H        -0.263870        -0.945611         0.623002
 H        -0.474331         0.755588         0.471967
 H        -0.761890        -0.366544        -0.931088
 H         2.029533         0.976943        -2.058192
 H         1.870145         2.169049        -0.738634
 H         4.587424         2.160062         0.324729
 H         2.388383         0.165542         2.138252
