19
Iteration:  1732charge 0 multiplicity 1
 C         4.152439        -1.791559         0.661602
 C         3.186973        -0.758904         0.321481
 O         2.091553        -1.284536        -0.496871
 C         1.431110        -0.025519        -0.169221
 C        -0.115967        -0.057500         0.026706
 C         2.281637         0.973891        -0.970640
 C         3.411331         0.686144        -0.031489
 O         4.592890         1.242582        -0.098067
 C         2.379127         0.240199         1.116283
 H         3.554259        -2.354297         1.339072
 H         4.771282        -2.398851        -0.060977
 H         4.955795        -1.332507         1.278740
 H        -0.412703        -0.634257         0.876903
 H        -0.488328         0.987661         0.189403
 H        -0.579614        -0.324519        -0.988758
 H         2.470144         0.759521        -2.028204
 H         1.907134         2.017040        -0.859227
 H         4.635969         1.983411         0.547776
 H         2.249640         0.329592         2.215291
