19
Iteration:  4904charge 0 multiplicity 1
 C         4.392237        -1.746669         0.576742
 C         3.147277        -0.895878         0.305871
 O         2.017414        -1.316727        -0.402253
 C         1.398131        -0.017846        -0.108047
 C        -0.108960         0.081821        -0.046231
 C         2.199203         1.012634        -1.063013
 C         3.353888         0.654116        -0.067711
 O         4.585849         1.289227         0.162321
 C         2.363654         0.219846         1.080537
 H         4.086747        -2.766525         0.829177
 H         4.905197        -1.960347        -0.455782
 H         5.123050        -1.420647         1.401405
 H        -0.450826        -0.285325         0.930399
 H        -0.366863         1.141482        -0.100724
 H        -0.695176        -0.562728        -0.731713
 H         2.181520         0.458900        -2.051042
 H         1.945109         2.103069        -1.173727
 H         5.137948         1.165611        -0.635922
 H         2.261692         0.438058         2.158486
