19
Iteration:  2421
 C         4.252681        -1.869096         0.735922
 C         3.180184        -0.901582         0.268080
 O         2.007780        -1.290865        -0.429694
 C         1.445110         0.080605        -0.037145
 C        -0.175874        -0.028590        -0.090057
 C         2.208661         1.074451        -0.959548
 C         3.361612         0.677780        -0.133702
 O         4.608980         1.229667        -0.002450
 C         2.531242         0.265267         1.027037
 H         3.874032        -2.516564         1.533252
 H         4.853014        -2.409620         0.000632
 H         4.942006        -1.232921         1.243345
 H        -0.418870        -0.920851         0.489273
 H        -0.727548         0.802404         0.228900
 H        -0.461590        -0.276026        -1.119220
 H         2.009362         0.758516        -1.988061
 H         1.952885         2.142165        -0.689254
 H         4.677429         2.158869        -0.145612
 H         2.520101         0.449982         2.090182
