19
Iteration:  3333
 C         4.234834        -1.725050         0.699098
 C         3.212910        -0.783658         0.295810
 O         2.034763        -1.288947        -0.386444
 C         1.387799        -0.049880        -0.113802
 C        -0.119270         0.057338        -0.089138
 C         2.195237         0.888570        -1.060729
 C         3.350695         0.658572        -0.119179
 O         4.665798         1.201416         0.064391
 C         2.388764         0.223153         1.086398
 H         3.951487        -2.495171         1.361969
 H         4.561771        -2.103796        -0.250377
 H         5.003519        -1.063769         1.226845
 H        -0.311330        -0.774062         0.637276
 H        -0.523709         1.109705         0.285936
 H        -0.493406        -0.103970        -1.070740
 H         2.222881         0.791350        -2.146335
 H         1.965733         1.947079        -0.932720
 H         4.836759         2.176690        -0.012225
 H         2.495864         0.244876         2.132438
