19
Iteration:  1972charge 0 multiplicity 1
 C         4.328732        -1.769990         0.509593
 C         3.186784        -0.846711         0.294385
 O         1.959383        -1.296828        -0.285559
 C         1.418719         0.039527        -0.082215
 C        -0.090415         0.010983        -0.162767
 C         2.184567         0.901579        -0.999812
 C         3.373612         0.647254        -0.020134
 O         4.643655         1.220820         0.038677
 C         2.414470         0.288337         1.084043
 H         4.045923        -2.478650         1.229059
 H         4.634783        -2.293817        -0.398585
 H         5.045235        -0.937827         0.731960
 H        -0.406773        -0.563000         0.593526
 H        -0.333659         1.061164         0.044441
 H        -0.399666        -0.329628        -1.181197
 H         2.214554         0.594664        -2.027027
 H         1.725179         1.937379        -0.940467
 H         4.677191         1.978730         0.679050
 H         2.082720         0.553946         2.206143
