19
Iteration:   442charge 0 multiplicity 1
 C         4.245963        -1.845292         0.586316
 C         3.120386        -0.920077         0.337758
 O         2.044221        -1.245074        -0.505398
 C         1.381255         0.059755        -0.151588
 C        -0.044768        -0.059563        -0.011821
 C         2.239683         1.001986        -0.996857
 C         3.351907         0.610023        -0.022266
 O         4.631214         1.327286         0.073202
 C         2.406098         0.201380         1.080555
 H         4.041752        -2.732271         1.402425
 H         4.718655        -2.032433        -0.394004
 H         4.997974        -1.124309         0.961792
 H        -0.323518        -0.757717         0.845864
 H        -0.452749         1.001991         0.186267
 H        -0.493425        -0.535196        -0.887528
 H         2.318401         0.952602        -2.130383
 H         1.913458         2.024393        -0.830573
 H         4.474604         2.272959         0.323610
 H         2.322764         0.595984         2.029643
