19
Iteration:   330charge 0 multiplicity 1
 C         4.172003        -1.777755         0.661434
 C         3.247894        -0.760492         0.199882
 O         2.124098        -1.236543        -0.582378
 C         1.431277        -0.007453        -0.053350
 C        -0.141414        -0.047264         0.016803
 C         2.092071         1.005556        -0.937949
 C         3.399740         0.657123        -0.117071
 O         4.656791         1.200520         0.088514
 C         2.448707         0.177233         1.081069
 H         3.469472        -2.462018         1.267287
 H         4.713511        -2.412517         0.014707
 H         4.889295        -1.269814         1.377604
 H        -0.505313        -0.891056         0.564707
 H        -0.549979         0.881781         0.257176
 H        -0.549543        -0.177316        -1.056513
 H         2.104956         0.882876        -1.980101
 H         1.742624         1.965309        -0.538143
 H         4.636247         2.148951         0.042487
 H         2.491468         0.508448         2.194539
