19
Iteration:  1554charge 0 multiplicity 1
 C         4.154067        -1.899578         0.666212
 C         3.172788        -0.799969         0.341755
 O         2.018502        -1.262048        -0.507231
 C         1.458002         0.014449        -0.165878
 C        -0.022125        -0.041065         0.042824
 C         2.254471         0.950849        -0.961061
 C         3.451595         0.689507        -0.023873
 O         4.626060         1.359948        -0.022907
 C         2.303133         0.217459         1.074841
 H         3.997016        -2.842749         1.280655
 H         4.261638        -2.465841        -0.250546
 H         5.072533        -1.374752         0.968989
 H        -0.247205        -0.830578         0.771291
 H        -0.297791         0.973265         0.110177
 H        -0.420853        -0.569394        -0.896332
 H         2.376017         0.550826        -2.027638
 H         1.884324         1.926745        -0.915461
 H         4.317899         2.269696         0.128399
 H         2.213493         0.785490         2.072376
