19
Iteration:   394
 C         4.391084        -1.809622         0.482373
 C         3.172949        -0.850806         0.357883
 O         1.977306        -1.256106        -0.439305
 C         1.364910        -0.017878        -0.052082
 C        -0.148156         0.010796        -0.128355
 C         2.187880         0.937803        -1.013597
 C         3.366245         0.671425        -0.013940
 O         4.639871         1.235658         0.111598
 C         2.463076         0.268038         1.112036
 H         4.214111        -2.511009         1.220770
 H         4.730793        -2.148766        -0.462442
 H         5.183414        -1.119474         0.842237
 H        -0.753369        -0.664948         0.476592
 H        -0.408131         1.021683         0.108233
 H        -0.407712        -0.174767        -1.250408
 H         2.212123         0.580710        -2.013047
 H         1.663193         1.928023        -1.033181
 H         4.522208         2.046188         0.633565
 H         2.324625         0.412944         2.253047
