19
Iteration:   602charge 0 multiplicity 1
 C         4.353479        -1.716048         0.546940
 C         3.202077        -0.917848         0.278961
 O         1.955282        -1.268595        -0.399467
 C         1.389706         0.000220        -0.064143
 C        -0.093193         0.048941        -0.108271
 C         2.176024         1.028555        -0.985509
 C         3.383578         0.622770        -0.143149
 O         4.657900         1.271303         0.161130
 C         2.388111         0.074755         1.073131
 H         4.181024        -2.413882         1.405012
 H         4.751459        -2.283019        -0.342397
 H         5.211260        -1.061198         0.784228
 H        -0.575219        -0.388706         0.807737
 H        -0.422805         1.063022        -0.327578
 H        -0.339522        -0.696589        -0.882552
 H         1.941743         0.868503        -2.047071
 H         1.837407         2.101630        -0.821135
 H         4.426219         2.173370         0.478266
 H         2.311746         0.455074         2.046237
