19
Iteration:   533
 C         4.225299        -1.747123         0.588304
 C         3.168023        -0.817096         0.301658
 O         1.966206        -1.293774        -0.508212
 C         1.397616         0.061382        -0.123031
 C        -0.150473        -0.082596        -0.077505
 C         2.268473         0.970763        -0.953888
 C         3.390326         0.672501         0.032653
 O         4.650214         1.278267        -0.000244
 C         2.459294         0.182715         1.146668
 H         3.878399        -2.609432         1.143366
 H         4.833371        -2.082485        -0.351600
 H         5.092593        -1.318135         1.218389
 H        -0.355639        -0.979493         0.466950
 H        -0.635746         0.699905         0.487629
 H        -0.606567        -0.209582        -1.064024
 H         2.559855         0.770582        -1.978855
 H         1.964660         2.018607        -0.985033
 H         4.454634         2.129870         0.417866
 H         2.577554         0.505424         2.257558
