19
Iteration:  4727
 C         4.373091        -1.746324         0.661987
 C         3.221344        -0.847458         0.371167
 O         2.035340        -1.408973        -0.478631
 C         1.343341        -0.026882        -0.124674
 C        -0.146518         0.166596         0.032365
 C         2.243174         0.981042        -1.106108
 C         3.313527         0.606931        -0.099388
 O         4.525534         1.348786         0.174646
 C         2.451924         0.163478         1.057169
 H         4.324986        -2.548396         1.405996
 H         4.418905        -2.101479        -0.409591
 H         5.136376        -1.050523         0.773823
 H        -0.462461        -0.298497         0.895004
 H        -0.268038         1.238432        -0.014159
 H        -0.648228        -0.191439        -0.918181
 H         2.576046         0.450369        -2.056702
 H         1.630505         1.831043        -1.369206
 H         4.987424         1.180549        -0.649623
 H         2.456884         0.447140         2.167082
