19
Iteration:  1318
 C         4.290965        -1.823580         0.743823
 C         3.237104        -0.851378         0.179879
 O         1.943623        -1.320161        -0.448700
 C         1.341107         0.036321        -0.111668
 C        -0.058555        -0.071419        -0.058889
 C         2.225798         1.079438        -0.932835
 C         3.386612         0.688407        -0.165396
 O         4.615537         1.215635         0.075904
 C         2.454522         0.283877         0.989388
 H         3.941075        -2.677298         1.231843
 H         4.906855        -2.306857        -0.039962
 H         4.939586        -1.256114         1.319153
 H        -0.298015        -1.097502         0.301844
 H        -0.558851         0.537292         0.737250
 H        -0.741271         0.267176        -0.855066
 H         2.224444         0.913533        -2.007799
 H         1.778253         2.024541        -0.563558
 H         4.438794         2.029448         0.643165
 H         2.623219         0.699111         1.915990
