19
Iteration:  4346
 C         4.274608        -1.841464         0.736426
 C         3.203184        -0.791454         0.284726
 O         2.113915        -1.255089        -0.402885
 C         1.423122        -0.015266        -0.170085
 C        -0.135102        -0.052732        -0.085093
 C         2.212949         1.026344        -0.991812
 C         3.272301         0.777894         0.021347
 O         4.618158         1.232962        -0.069191
 C         2.413307         0.190597         1.118227
 H         3.873444        -2.388901         1.640062
 H         4.434393        -2.680395        -0.063486
 H         5.138927        -1.230577         0.797505
 H        -0.398681        -0.672347         0.828273
 H        -0.370163         1.001347        -0.071435
 H        -0.651041        -0.559924        -0.973747
 H         2.517027         0.776320        -2.020752
 H         1.815006         2.051927        -0.843946
 H         4.620764         2.129333        -0.391559
 H         2.070000        -0.032428         2.147240
