19
Iteration:   800
 C         4.245078        -1.813870         0.522200
 C         3.209784        -0.781574         0.284659
 O         2.068302        -1.318749        -0.462436
 C         1.384229         0.049206        -0.103524
 C        -0.082074        -0.150103        -0.028075
 C         2.261057         1.120388        -0.862740
 C         3.372741         0.686896        -0.008830
 O         4.640234         1.219070         0.039552
 C         2.341939         0.260747         1.038244
 H         3.821315        -2.543847         1.374973
 H         4.314695        -2.563584        -0.299656
 H         5.241414        -1.376882         0.708877
 H        -0.284712        -0.442567         1.023662
 H        -0.679814         0.705676        -0.451401
 H        -0.287210        -0.884989        -0.768610
 H         2.291077         0.967468        -1.976274
 H         1.889947         2.171010        -0.701546
 H         4.502394         2.153273         0.217260
 H         1.799299         0.513063         1.995630
