19
Iteration:   589charge 0 multiplicity 1
 C         4.431835        -1.775642         0.497878
 C         3.171633        -0.849373         0.300893
 O         2.059323        -1.389489        -0.380678
 C         1.351366         0.012756        -0.063071
 C        -0.213670         0.077578        -0.128481
 C         2.185013         1.033272        -0.955888
 C         3.409329         0.556848        -0.132382
 O         4.550038         1.218234         0.200474
 C         2.467922         0.273150         1.024593
 H         4.320914        -2.530395         1.238887
 H         4.632451        -2.288153        -0.530652
 H         5.269770        -1.038807         0.802245
 H        -0.699330        -0.262200         0.758282
 H        -0.492236         1.065809        -0.303587
 H        -0.642827        -0.423014        -1.015857
 H         2.323482         0.992631        -2.032849
 H         1.868840         2.030380        -0.559060
 H         4.301449         2.138144         0.394325
 H         2.457982         0.664000         2.074699
