19
Iteration:  1812charge 0 multiplicity 1
 C         4.235288        -1.777345         0.588825
 C         3.099350        -0.854934         0.419626
 O         2.097150        -1.270907        -0.412895
 C         1.394731         0.040083        -0.165602
 C        -0.083197         0.020530        -0.114198
 C         2.172887         0.885030        -1.070113
 C         3.370593         0.717501         0.040107
 O         4.670026         1.226464        -0.009753
 C         2.442985         0.256346         1.179601
 H         4.405345        -2.783061         1.088244
 H         4.303678        -2.201966        -0.457785
 H         5.247683        -1.259734         0.777156
 H        -0.609489        -0.740857         0.592941
 H        -0.503661         1.011695         0.162885
 H        -0.635724        -0.298374        -0.980782
 H         2.175516         0.433140        -2.048822
 H         1.816291         1.938828        -0.995717
 H         4.570950         2.179858         0.268677
 H         2.100009         0.548981         2.279685
