19
Iteration:  2373
 C         4.184694        -1.876105         0.701664
 C         3.159393        -0.859377         0.335288
 O         2.073001        -1.329303        -0.449479
 C         1.447980         0.025467        -0.169013
 C        -0.075085        -0.037948         0.027636
 C         2.231292         1.091631        -1.004707
 C         3.346769         0.662578         0.040300
 O         4.651514         1.306218        -0.113725
 C         2.365268         0.260066         1.070784
 H         3.886174        -2.498699         1.534794
 H         4.239692        -2.504684        -0.189328
 H         5.290198        -1.694941         0.883860
 H        -0.379767        -0.678324         0.738815
 H        -0.336046         1.010670         0.194978
 H        -0.464819        -0.371401        -0.934513
 H         2.630421         0.797293        -2.017644
 H         1.947024         2.129155        -0.839018
 H         4.336545         2.269930        -0.059919
 H         2.068601         0.279507         2.131458
