19
Iteration:   407charge 0 multiplicity 1
 C         4.356604        -1.790785         0.494297
 C         3.242150        -0.810878         0.213326
 O         2.070527        -1.340070        -0.280671
 C         1.378990         0.018907        -0.109982
 C        -0.155665         0.075491        -0.130710
 C         2.062315         0.990574        -1.082495
 C         3.327497         0.751022        -0.022108
 O         4.672496         1.219973         0.172626
 C         2.416331         0.139167         1.092442
 H         4.047838        -2.714511         1.118446
 H         4.556156        -2.310644        -0.404297
 H         5.284749        -1.376990         0.923071
 H        -0.545846        -0.676989         0.604467
 H        -0.661605         1.024788         0.042704
 H        -0.454788        -0.265176        -1.201146
 H         2.233104         0.657490        -2.096296
 H         1.738917         2.036545        -0.983448
 H         4.667573         2.108464         0.604510
 H         2.440500         0.518182         2.130835
