19
Iteration:  2499
 C         4.285780        -1.706793         0.626382
 C         3.161843        -0.886385         0.179330
 O         1.935360        -1.372525        -0.334187
 C         1.390227         0.013443        -0.091462
 C        -0.115900         0.032220        -0.039998
 C         2.194769         0.929475        -1.002485
 C         3.380913         0.562404        -0.138069
 O         4.667702         1.220353         0.124354
 C         2.472561         0.388173         0.999417
 H         4.137106        -2.783901         0.959003
 H         5.138249        -1.816979        -0.098544
 H         4.727073        -1.051039         1.315070
 H        -0.659441        -0.616245         0.783225
 H        -0.588733         1.038365        -0.016994
 H        -0.391426        -0.201845        -1.015494
 H         2.387064         0.928511        -2.117940
 H         1.846021         1.985917        -0.591592
 H         4.483100         2.178044         0.183953
 H         2.757523         0.337599         2.020330
