19
Iteration:  4742
 C         4.345556        -1.689632         0.592477
 C         3.153372        -0.873491         0.254448
 O         2.004175        -1.373528        -0.392191
 C         1.439182        -0.089138        -0.120613
 C        -0.073286         0.182204        -0.066328
 C         2.178845         0.847659        -1.040328
 C         3.326339         0.737227        -0.026217
 O         4.513435         1.339403         0.141001
 C         2.463543         0.159666         1.067260
 H         4.138517        -2.194974         1.523176
 H         4.608698        -2.516694        -0.080584
 H         5.290147        -1.059323         0.694883
 H        -0.618468        -0.438980         0.703446
 H        -0.162745         1.235411         0.283764
 H        -0.591286         0.014351        -1.055910
 H         2.291835         0.495646        -2.083162
 H         1.871533         1.910994        -0.985700
 H         5.203737         1.094376        -0.547963
 H         2.405969         0.275431         2.105217
