19
Iteration:  2187
 C         4.204579        -1.761658         0.658838
 C         3.102717        -0.831392         0.314887
 O         2.026331        -1.281852        -0.472138
 C         1.435118        -0.076033        -0.144832
 C        -0.034745        -0.009756         0.003712
 C         2.264241         0.951669        -1.034914
 C         3.378275         0.702859        -0.015034
 O         4.692564         1.265774        -0.028613
 C         2.340778         0.259992         1.083491
 H         3.915748        -2.463603         1.463399
 H         4.396869        -2.355495        -0.243367
 H         5.057181        -1.169691         0.880292
 H        -0.364039        -0.653849         0.758238
 H        -0.291467         1.044173         0.360986
 H        -0.786367        -0.345467        -0.773102
 H         2.499723         0.478628        -2.033028
 H         1.687608         1.864492        -1.057043
 H         4.607082         2.089241         0.542114
 H         2.219641         0.503877         2.171905
