19
Iteration:  1726
 C         4.112277        -1.787267         0.697406
 C         3.168165        -0.776509         0.269432
 O         2.121578        -1.303281        -0.485153
 C         1.422506        -0.009145        -0.190067
 C        -0.111012        -0.046388         0.023465
 C         2.325107         0.961380        -0.942327
 C         3.384945         0.692492        -0.042847
 O         4.597856         1.275189        -0.100707
 C         2.384948         0.228259         1.112596
 H         3.571979        -2.534518         1.365119
 H         4.480176        -2.161740        -0.267111
 H         4.826844        -1.432883         1.461383
 H        -0.251878        -0.769042         0.878509
 H        -0.351503         0.976804         0.312063
 H        -0.536924        -0.376666        -0.879593
 H         2.343250         0.743852        -2.032104
 H         1.920285         1.978208        -0.900289
 H         4.593390         2.046406         0.509202
 H         2.385790         0.389146         2.241245
