19
Iteration:  2970
 C         4.311422        -1.811460         0.600767
 C         3.132705        -0.886664         0.292456
 O         1.944601        -1.355571        -0.373982
 C         1.381035         0.016650        -0.143186
 C        -0.110340         0.006708        -0.079411
 C         2.204575         0.972319        -1.105161
 C         3.365057         0.663985        -0.022054
 O         4.638389         1.324944         0.085135
 C         2.527398         0.293207         1.122894
 H         3.831423        -2.463734         1.370171
 H         4.647045        -2.499873        -0.210108
 H         5.253553        -1.348164         0.999863
 H        -0.557378        -0.816298         0.501043
 H        -0.556433         0.960637         0.445356
 H        -0.457817        -0.144549        -1.065802
 H         2.353405         0.373091        -2.037096
 H         1.983740         2.029412        -1.246245
 H         4.567201         2.282322         0.139501
 H         2.593971         0.623233         2.191429
