19
Iteration:  4984
 C         4.236312        -1.841025         0.769900
 C         3.226978        -0.788958         0.303437
 O         2.070082        -1.282829        -0.548919
 C         1.391555         0.013756        -0.163011
 C        -0.030764         0.034108        -0.030985
 C         2.215043         1.034342        -0.848031
 C         3.378728         0.642118        -0.067551
 O         4.534820         1.395958        -0.022033
 C         2.372198         0.115473         1.019145
 H         4.065707        -2.307527         1.794039
 H         4.043269        -2.754246         0.156309
 H         5.372837        -1.772428         0.641345
 H        -0.456940        -0.920198         0.442953
 H        -0.555267         0.863314         0.456613
 H        -0.409561         0.017153        -0.990301
 H         2.051932         0.969972        -1.949290
 H         2.010074         2.110629        -0.542375
 H         5.247189         0.782725        -0.273378
 H         2.201453         0.260186         2.057518
