19
Iteration:  4463
 C         4.312405        -1.804855         0.800064
 C         3.182139        -0.776253         0.239856
 O         2.028669        -1.299993        -0.475170
 C         1.371230         0.002672        -0.178393
 C        -0.051760        -0.018041        -0.038580
 C         2.182066         1.050751        -0.934053
 C         3.348430         0.662794        -0.023883
 O         4.601102         1.224787        -0.040053
 C         2.400176         0.204391         1.041022
 H         3.935744        -2.711190         1.369579
 H         5.108405        -2.196740         0.206912
 H         4.823839        -1.104793         1.479805
 H        -0.359855        -0.743531         0.805016
 H        -0.497333         0.967061         0.128065
 H        -0.433716        -0.481616        -0.920851
 H         2.367887         0.777769        -1.974682
 H         2.031646         2.149033        -0.815419
 H         4.538857         2.015313        -0.569785
 H         2.201027         0.237397         2.116216
