19
Iteration:  4607charge 0 multiplicity 1
 C         4.363146        -1.732702         0.781508
 C         3.204684        -0.786280         0.305304
 O         1.929931        -1.309313        -0.476730
 C         1.407295        -0.069412        -0.141549
 C        -0.114318         0.030438        -0.078292
 C         2.190631         0.968108        -0.895867
 C         3.388560         0.638247        -0.122252
 O         4.601761         1.363467        -0.119916
 C         2.421148         0.115568         1.106024
 H         3.924637        -2.509031         1.450542
 H         4.820433        -2.296571        -0.060610
 H         5.084087        -1.183519         1.323007
 H        -0.686944        -0.796090         0.395849
 H        -0.360946         0.929563         0.492035
 H        -0.745339         0.388256        -0.990635
 H         2.495290         0.929009        -1.996128
 H         1.858138         2.002710        -0.695610
 H         5.322051         0.964863         0.449424
 H         2.174198         0.302837         2.167401
