19
Iteration:   809charge 0 multiplicity 1
 C         4.231718        -1.850619         0.571914
 C         3.130174        -0.802701         0.311866
 O         2.070737        -1.322130        -0.486012
 C         1.435584        -0.028567        -0.176368
 C        -0.052406        -0.151972        -0.040004
 C         2.167345         1.151293        -0.897910
 C         3.396527         0.714474         0.029723
 O         4.721187         1.287859        -0.009720
 C         2.315752         0.215517         1.083360
 H         3.905524        -2.555970         1.410737
 H         4.125085        -2.267492        -0.456041
 H         5.230587        -1.579781         0.847291
 H        -0.524018        -0.402660         0.964179
 H        -0.557970         0.823957        -0.215308
 H        -0.431767        -0.952500        -0.670680
 H         2.308768         1.053106        -1.968622
 H         1.759280         2.084618        -0.423700
 H         4.797621         2.208205         0.244041
 H         1.959341         0.729630         2.063008
