19
Iteration:  3853
 C         4.324292        -1.763118         0.827999
 C         3.219621        -0.836671         0.302678
 O         1.938104        -1.251907        -0.437860
 C         1.439332         0.051576        -0.050529
 C        -0.110704        -0.082672        -0.069134
 C         2.107183         0.976313        -1.014534
 C         3.383148         0.737908        -0.134988
 O         4.685182         1.208705        -0.059852
 C         2.437733         0.169812         1.078567
 H         3.771941        -2.562156         1.312576
 H         4.946645        -2.181365         0.026368
 H         4.954636        -1.123931         1.557054
 H        -0.348227        -1.109417         0.090759
 H        -0.674270         0.818802         0.308246
 H        -0.278266         0.066077        -1.149781
 H         2.100360         0.802434        -2.085184
 H         1.690973         2.003023        -0.927230
 H         4.734142         2.175828        -0.125320
 H         2.255165         0.325395         2.133931
