19
Iteration:  2291
 C         4.335878        -1.739137         0.671228
 C         3.125017        -0.829061         0.387965
 O         2.018808        -1.353653        -0.447401
 C         1.417978         0.021505        -0.064782
 C        -0.104290         0.021102        -0.086639
 C         2.219498         1.004655        -0.998464
 C         3.371840         0.626077        -0.130215
 O         4.638785         1.150678        -0.022216
 C         2.368207         0.300282         1.094070
 H         4.122761        -2.778380         0.987494
 H         4.854045        -1.809378        -0.320577
 H         4.975524        -1.182738         1.364904
 H        -0.569301        -0.689807         0.746272
 H        -0.516539         0.949869         0.279407
 H        -0.579934        -0.066377        -1.090239
 H         2.263408         0.865484        -2.043634
 H         2.029265         2.079924        -0.817655
 H         4.495551         2.105508         0.168612
 H         2.325889         0.462216         2.218014
