19
Iteration:   100
 C         4.138152        -1.853737         0.561754
 C         3.200366        -0.793314         0.216912
 O         2.152059        -1.296888        -0.545480
 C         1.388345        -0.100161        -0.151672
 C        -0.092030         0.052467         0.007985
 C         2.211687         0.891345        -0.921163
 C         3.348610         0.721292        -0.031663
 O         4.537637         1.441871         0.171538
 C         2.478719         0.199683         1.087868
 H         3.485365        -2.578379         1.110464
 H         4.485132        -2.335451        -0.269703
 H         4.836706        -1.468036         1.322724
 H        -0.424606        -0.527368         0.836004
 H        -0.201233         1.043967         0.228461
 H        -0.782964        -0.136736        -0.838699
 H         2.346566         0.460372        -1.903845
 H         1.822117         1.911429        -1.079316
 H         5.246604         1.014770        -0.292574
 H         2.795691         0.458494         2.089458
