19
Iteration:  2672charge 0 multiplicity 1
 C         4.352377        -1.781456         0.574564
 C         3.248993        -0.870489         0.342588
 O         1.953586        -1.305890        -0.392958
 C         1.351637         0.050272        -0.031022
 C        -0.123085         0.099129        -0.137303
 C         2.183495         0.879558        -1.002964
 C         3.388127         0.645588        -0.142696
 O         4.580719         1.214199         0.073129
 C         2.475076         0.290970         1.082599
 H         3.988527        -2.809995         0.850034
 H         5.167253        -1.875057        -0.164610
 H         4.870383        -1.498041         1.476588
 H        -0.378820        -0.585536         0.757228
 H        -0.654794         1.020893        -0.030664
 H        -0.483703        -0.350750        -1.099890
 H         2.137558         0.693225        -2.051247
 H         2.046242         1.920510        -0.845149
 H         4.470616         2.170291         0.263441
 H         2.496477         0.578830         2.192265
