19
Iteration:  3026charge 0 multiplicity 1
 C         4.360864        -1.685429         0.621133
 C         3.179319        -0.871860         0.329734
 O         2.023733        -1.254203        -0.396150
 C         1.380498        -0.061884        -0.061978
 C        -0.130824         0.049399        -0.100492
 C         2.194299         0.963614        -1.019350
 C         3.318417         0.712087        -0.031837
 O         4.613912         1.092853         0.032049
 C         2.430562         0.267761         1.040177
 H         4.089896        -2.438248         1.421988
 H         4.789760        -2.215598        -0.280747
 H         5.147996        -1.102898         1.025328
 H        -0.575658        -0.486318         0.694563
 H        -0.597416         1.078832        -0.266610
 H        -0.411482        -0.383472        -1.016188
 H         2.237984         0.658075        -2.052135
 H         1.778257         1.985128        -0.981706
 H         4.742371         1.979695         0.368621
 H         2.527473         0.578533         2.045853
