19
Iteration:  1455charge 0 multiplicity 1
 C         4.298253        -1.691325         0.578190
 C         3.098010        -0.807051         0.419696
 O         2.055352        -1.283531        -0.475199
 C         1.411057        -0.038707        -0.146734
 C        -0.130894        -0.019798        -0.051555
 C         2.226310         1.034247        -0.965231
 C         3.385760         0.677601         0.039031
 O         4.743121         1.124188        -0.037407
 C         2.225835         0.233957         1.116568
 H         4.148703        -2.743361         0.987221
 H         4.771222        -1.860392        -0.421899
 H         5.104087        -1.068658         1.060306
 H        -0.205056        -0.784757         0.701955
 H        -0.436047         0.889783         0.331446
 H        -0.577321        -0.187332        -1.009365
 H         2.447415         0.687927        -2.006888
 H         1.937839         2.034802        -0.896935
 H         4.633243         2.073212        -0.083157
 H         1.959480         0.399099         2.120482
