19
Iteration:  2230charge 0 multiplicity 1
 C         4.205129        -1.912295         0.806037
 C         3.238828        -0.870781         0.272846
 O         1.951455        -1.230998        -0.455998
 C         1.359830         0.006916        -0.119629
 C        -0.077189        -0.105339        -0.050501
 C         2.123901         1.051526        -0.972811
 C         3.390585         0.668500        -0.177508
 O         4.679592         1.274290         0.011270
 C         2.535626         0.262316         1.028471
 H         3.806091        -2.666320         1.566843
 H         4.867148        -2.440206         0.083158
 H         4.904443        -1.231389         1.281066
 H        -0.441885        -0.869818         0.628348
 H        -0.446799         0.952095         0.230871
 H        -0.517503        -0.370634        -1.086598
 H         2.022852         1.082755        -2.131679
 H         1.930250         2.048128        -0.527175
 H         4.614258         2.270796         0.134314
 H         2.575813         0.881229         1.946244
