19
Iteration:  3524
 C         4.284495        -1.788305         0.677294
 C         3.224158        -0.807773         0.344144
 O         1.992057        -1.338247        -0.300192
 C         1.368364         0.088018        -0.112686
 C        -0.170691        -0.080548        -0.149081
 C         2.282015         1.057223        -1.019296
 C         3.415622         0.636317        -0.048246
 O         4.614551         1.207978        -0.086756
 C         2.386837         0.239732         1.094256
 H         4.178995        -2.652994         1.401955
 H         4.768850        -2.099067        -0.279874
 H         4.911496        -1.127344         1.216962
 H        -0.493525        -0.913231         0.486091
 H        -0.598057         0.849852         0.179176
 H        -0.595254        -0.292288        -1.226840
 H         2.407954         1.002183        -2.137663
 H         2.010029         2.145020        -0.895753
 H         4.734574         2.030784         0.392603
 H         2.209617         0.563318         2.077765
