19
Iteration:  2994
 C         4.310872        -1.712158         0.512856
 C         3.151546        -0.824562         0.444852
 O         2.024893        -1.339887        -0.314967
 C         1.405962        -0.054571        -0.150431
 C        -0.092943         0.093207        -0.072174
 C         2.323090         0.938602        -1.059612
 C         3.372874         0.628150         0.026625
 O         4.628668         1.249165         0.013749
 C         2.269129         0.225653         1.012002
 H         4.120044        -2.494885         1.297793
 H         4.367233        -2.250573        -0.477175
 H         5.243876        -1.229299         0.648760
 H        -0.464308        -0.550486         0.699510
 H        -0.463371         1.131965         0.301386
 H        -0.555036        -0.308221        -1.014887
 H         2.377324         0.591292        -2.035657
 H         1.926157         1.940800        -0.918845
 H         4.617593         2.243895         0.170546
 H         2.218869         0.403889         2.043293
