19
Iteration:  2869
 C         4.326292        -1.819682         0.658217
 C         3.225744        -0.837882         0.347144
 O         2.001762        -1.309142        -0.435439
 C         1.394496         0.028301        -0.122871
 C        -0.158430        -0.045385        -0.068631
 C         2.121847         1.077088        -1.016737
 C         3.404140         0.637704        -0.118163
 O         4.643728         1.192919         0.095155
 C         2.462474         0.280780         1.024997
 H         3.962120        -2.726626         1.174379
 H         5.008475        -2.125980        -0.161120
 H         4.918364        -1.282689         1.516342
 H        -0.663979        -0.659827         0.788047
 H        -0.443806         1.063589         0.110910
 H        -0.652096        -0.512978        -0.921423
 H         2.072892         0.978228        -2.164061
 H         1.763389         2.112209        -0.798551
 H         4.675136         2.163686        -0.161852
 H         2.446666         0.556560         2.073255
