19
Iteration:  4869charge 0 multiplicity 1
 C         4.325029        -1.721700         0.727310
 C         3.142550        -0.881428         0.227466
 O         2.012453        -1.381430        -0.504918
 C         1.368983        -0.010771        -0.139682
 C        -0.061333         0.124664         0.024294
 C         2.217313         1.038349        -0.994252
 C         3.340628         0.599282        -0.098498
 O         4.525569         1.405246         0.086548
 C         2.482487         0.081412         1.034917
 H         3.837225        -2.731644         0.924935
 H         5.190298        -1.837760        -0.081875
 H         4.790019        -1.354972         1.635254
 H        -0.148962        -0.192932         0.998584
 H        -0.282383         1.178134         0.038022
 H        -0.789112        -0.347603        -0.755332
 H         2.091440         0.567693        -1.977647
 H         1.885619         2.064446        -0.976707
 H         5.286750         0.852676        -0.109062
 H         2.466269         0.230988         2.074556
