19
Iteration:  1153charge 0 multiplicity 1
 C         4.201903        -1.862632         0.681093
 C         3.238502        -0.836372         0.288383
 O         2.077567        -1.273471        -0.471819
 C         1.390091         0.073758        -0.138254
 C        -0.087351        -0.056636        -0.014183
 C         2.205301         1.079824        -1.031411
 C         3.387578         0.716512        -0.064459
 O         4.614836         1.265848         0.072838
 C         2.413531         0.158985         1.072447
 H         3.701169        -2.589292         1.287722
 H         4.415018        -2.463672        -0.299914
 H         5.160740        -1.512412         1.125111
 H        -0.208274        -0.860923         0.771689
 H        -0.716883         0.749134         0.317318
 H        -0.511538        -0.272509        -1.042055
 H         2.330793         0.872140        -2.146322
 H         1.732593         2.039958        -0.890294
 H         4.425811         2.198787        -0.074520
 H         2.334880         0.246942         2.270531
