19
Iteration:  1106charge 0 multiplicity 1
 C         4.390495        -1.729444         0.642780
 C         3.207331        -0.922989         0.348136
 O         2.046766        -1.319598        -0.380171
 C         1.313168         0.076131        -0.129882
 C        -0.173781         0.045296        -0.188225
 C         2.199455         1.054318        -0.905273
 C         3.360722         0.636636        -0.074022
 O         4.614072         1.220599        -0.057055
 C         2.420447         0.119567         1.120152
 H         4.120239        -2.704669         1.116750
 H         4.929576        -1.971340        -0.259253
 H         5.074683        -1.121644         1.307949
 H        -0.525383        -0.943237         0.132228
 H        -0.689452         0.802138         0.552566
 H        -0.436830         0.476729        -1.187051
 H         2.111320         0.836887        -2.012302
 H         2.102349         2.155837        -0.715086
 H         4.561594         1.951827         0.609516
 H         2.295198         0.303649         2.142113
