19
Iteration:  2263charge 0 multiplicity 1
 C         4.213323        -1.832355         0.670583
 C         3.201096        -0.776226         0.300279
 O         2.092887        -1.297946        -0.440716
 C         1.402606         0.076319        -0.103564
 C        -0.070642        -0.029473        -0.084961
 C         2.248269         0.965842        -0.948247
 C         3.342850         0.725344         0.016841
 O         4.650791         1.229541        -0.177240
 C         2.320819         0.159647         1.204534
 H         3.664088        -2.611148         1.279585
 H         4.828266        -2.156205        -0.194686
 H         4.724994        -1.228750         1.414361
 H        -0.437716        -0.717845         0.593183
 H        -0.479945         0.991084         0.259397
 H        -0.755283        -0.265836        -0.989678
 H         2.385596         0.550262        -2.044334
 H         2.103697         2.067482        -0.961833
 H         4.664259         2.147289         0.074670
 H         2.239613         0.410037         2.244247
