19
Iteration:  3820
 C         4.150788        -1.778841         0.735645
 C         3.237272        -0.746179         0.349704
 O         2.065746        -1.296910        -0.428148
 C         1.395301         0.018689        -0.194333
 C        -0.075854        -0.116887        -0.029674
 C         2.289768         0.977818        -0.959311
 C         3.437533         0.583720        -0.084626
 O         4.622724         1.314130        -0.105140
 C         2.329720         0.256732         1.106621
 H         3.579923        -2.450346         1.374897
 H         4.464801        -2.328095        -0.158970
 H         5.126305        -1.474953         1.250655
 H        -0.388729        -0.803478         0.731678
 H        -0.587269         0.815095         0.405262
 H        -0.585192        -0.269240        -1.005151
 H         2.380585         0.831316        -2.027701
 H         2.010581         1.968963        -0.569439
 H         4.337584         2.249007        -0.313939
 H         2.209726         0.409609         2.209904
