19
Iteration:  4678charge 0 multiplicity 1
 C         4.198230        -1.838579         0.680118
 C         3.118263        -0.849055         0.302413
 O         2.036239        -1.363387        -0.408024
 C         1.343082         0.052206        -0.093888
 C        -0.110662        -0.146056         0.033754
 C         2.253271         1.087671        -1.120043
 C         3.303045         0.760221        -0.146457
 O         4.650123         1.366256         0.104936
 C         2.580869         0.274034         1.070142
 H         3.502684        -2.674997         0.929727
 H         4.748984        -2.209470        -0.181013
 H         4.809927        -1.495811         1.603258
 H        -0.414463        -0.733133         0.971284
 H        -0.625143         0.811328        -0.196592
 H        -0.255549        -0.767031        -0.861023
 H         2.054384         0.834096        -2.123256
 H         1.999188         2.157098        -1.019595
 H         5.262927         0.969884        -0.580979
 H         2.433404         0.551237         2.060574
