19
Iteration:  2120
 C         4.342694        -1.817805         0.648702
 C         3.133947        -0.821627         0.283770
 O         1.996005        -1.326550        -0.330017
 C         1.380808         0.041024        -0.016182
 C        -0.160526         0.026694        -0.121510
 C         2.162582         1.060105        -1.056959
 C         3.409211         0.681384        -0.090899
 O         4.706285         1.203277         0.000585
 C         2.419304         0.217794         1.066010
 H         4.068810        -2.608923         1.402307
 H         4.729479        -2.061327        -0.332954
 H         5.023097        -1.230058         1.217610
 H        -0.552916        -0.793895         0.532959
 H        -0.534443         1.059784         0.069192
 H        -0.302521        -0.377522        -1.137388
 H         2.295602         0.616891        -2.107385
 H         1.595478         1.984076        -0.876819
 H         4.507077         2.101406         0.227523
 H         2.410952         0.193493         2.181665
