19
Iteration:  3096
 C         4.097583        -1.932038         0.785285
 C         3.242404        -0.789999         0.352788
 O         2.214204        -1.247920        -0.480197
 C         1.350781         0.026763        -0.123587
 C        -0.067439        -0.044544         0.063414
 C         2.173337         0.979914        -1.020235
 C         3.352593         0.737968        -0.074113
 O         4.652795         1.278138        -0.106863
 C         2.386358         0.229349         1.014469
 H         3.494833        -2.698445         1.227334
 H         4.687479        -2.363446         0.005868
 H         4.869757        -1.616771         1.562504
 H        -0.456265        -0.896075         0.673958
 H        -0.475754         0.859579         0.380169
 H        -0.483182         0.064527        -1.030624
 H         2.340367         0.754968        -2.032645
 H         1.740352         1.952860        -0.941102
 H         4.663423         2.222823        -0.078676
 H         2.061155         0.314233         2.102218
