19
Iteration:  2897charge 0 multiplicity 1
 C         4.163209        -1.760121         0.770366
 C         3.173203        -0.763076         0.270888
 O         2.015468        -1.258177        -0.576419
 C         1.419682         0.062290        -0.059416
 C        -0.030815        -0.114853         0.011552
 C         2.264666         1.046205        -0.957935
 C         3.394482         0.630161        -0.026569
 O         4.649985         1.232690        -0.112087
 C         2.343243         0.154368         1.085583
 H         3.671137        -2.626833         1.253002
 H         4.966358        -2.099821         0.093820
 H         4.738266        -1.220930         1.445745
 H        -0.409334        -0.763792         0.745440
 H        -0.454647         0.837202         0.295766
 H        -0.451938        -0.550399        -0.959071
 H         2.364324         0.702737        -1.965365
 H         1.936931         2.082017        -0.793468
 H         4.580955         2.214585         0.065663
 H         2.410827         0.336979         2.148486
