19
Iteration:  2282
 C         4.332811        -1.768120         0.725192
 C         3.131149        -0.839165         0.427835
 O         2.038106        -1.251264        -0.500562
 C         1.341376        -0.024638        -0.047165
 C        -0.113188         0.041143        -0.061123
 C         2.276840         0.999644        -1.000005
 C         3.343685         0.639568        -0.045792
 O         4.632880         1.178079        -0.112530
 C         2.402125         0.266498         1.094240
 H         4.036046        -2.846595         1.010121
 H         4.682165        -1.722188        -0.348334
 H         5.171702        -1.441403         1.316610
 H        -0.529811        -0.873629         0.517818
 H        -0.447960         1.033472         0.264158
 H        -0.480736        -0.269078        -0.969960
 H         2.603772         0.673842        -1.998097
 H         1.740774         1.957380        -0.936214
 H         4.574194         2.127542         0.133864
 H         2.068292         0.315086         2.158322
