19
Iteration:   925charge 0 multiplicity 1
 C         4.329526        -1.721888         0.547838
 C         3.106923        -0.856584         0.379194
 O         2.024460        -1.343327        -0.511202
 C         1.365341         0.047290        -0.092731
 C        -0.149448        -0.013139        -0.077684
 C         2.223267         1.038194        -1.019678
 C         3.346039         0.732600        -0.044700
 O         4.649959         1.167430         0.092190
 C         2.478303         0.237831         1.142503
 H         4.189028        -2.579862         1.114664
 H         4.691005        -1.949388        -0.492836
 H         5.002142        -1.097326         1.190476
 H        -0.309863        -1.082056         0.233408
 H        -0.679041         0.607036         0.572248
 H        -0.656062        -0.063323        -1.107488
 H         2.452649         0.582076        -1.990781
 H         1.715909         1.995892        -1.011135
 H         4.678764         2.103322         0.314835
 H         2.456316         0.288486         2.323771
