19
Iteration:  4541
 C         4.169167        -1.792874         0.530562
 C         3.076403        -0.809347         0.363307
 O         2.082136        -1.370610        -0.412214
 C         1.410030         0.008937        -0.097410
 C        -0.101643        -0.052929        -0.045839
 C         2.236768         0.889849        -1.024402
 C         3.472214         0.635365        -0.026830
 O         4.585462         1.446168         0.060241
 C         2.415845         0.335516         1.071238
 H         4.052338        -2.588758         1.325719
 H         4.370846        -2.218763        -0.429239
 H         5.044830        -1.310389         0.897202
 H        -0.229903        -0.698223         0.860304
 H        -0.339558         0.995336         0.123598
 H        -0.573575        -0.406988        -0.966517
 H         2.311176         0.674836        -2.121816
 H         1.833379         1.920262        -0.977241
 H         5.321961         0.840528         0.105742
 H         2.109862         0.582058         2.029285
