19
Iteration:  1322charge 0 multiplicity 1
 C         4.265553        -1.822252         0.735130
 C         3.212058        -0.849378         0.177224
 O         1.930488        -1.315223        -0.468299
 C         1.389831        -0.006590        -0.102133
 C        -0.072801        -0.059675        -0.033457
 C         2.244927         1.050293        -0.932331
 C         3.409191         0.707881        -0.167044
 O         4.626016         1.250196         0.065832
 C         2.449466         0.277102         0.973839
 H         3.987014        -2.778431         1.381659
 H         4.816398        -2.348565        -0.076632
 H         4.935369        -1.152956         1.434785
 H        -0.325695        -1.099297         0.222298
 H        -0.585155         0.601491         0.761652
 H        -0.809042         0.089106        -0.833082
 H         2.230315         1.011075        -2.020238
 H         1.855514         2.068515        -0.546491
 H         4.370933         1.910166         0.717541
 H         2.574263         0.732947         2.029818
