19
Iteration:  3647charge 0 multiplicity 1
 C         4.171891        -1.805235         0.759741
 C         3.167578        -0.835336         0.371102
 O         2.053720        -1.346620        -0.434486
 C         1.424504        -0.069500        -0.168774
 C        -0.063345        -0.027401        -0.033662
 C         2.161980         1.018469        -1.054581
 C         3.412255         0.659561        -0.107898
 O         4.670801         1.338441        -0.055137
 C         2.459391         0.274021         1.042160
 H         3.801054        -2.583600         1.408380
 H         4.677555        -2.220593        -0.106131
 H         4.842303        -1.250894         1.505626
 H        -0.524585        -0.938016         0.399591
 H        -0.268502         0.916075         0.632423
 H        -0.680884        -0.015777        -0.940297
 H         1.975002         0.658077        -2.135346
 H         1.601623         1.980937        -0.961117
 H         4.722274         1.970148         0.647652
 H         2.190972         0.602004         2.134819
