19
Iteration:  1978charge 0 multiplicity 1
 C         4.272841        -1.705828         0.483857
 C         3.163845        -0.839264         0.363229
 O         1.990631        -1.303769        -0.309306
 C         1.406489        -0.002029        -0.096903
 C        -0.061634         0.061125        -0.154433
 C         2.197582         0.890630        -1.008114
 C         3.381629         0.632660        -0.051457
 O         4.660130         1.258775         0.026044
 C         2.377779         0.247255         1.098613
 H         4.120339        -2.478577         1.369499
 H         4.544546        -2.259145        -0.439218
 H         5.129439        -1.108472         0.827533
 H        -0.463953        -0.698090         0.688695
 H        -0.404768         1.101032         0.034546
 H        -0.493073        -0.381659        -1.071671
 H         2.123311         0.484510        -2.066312
 H         1.973416         1.915376        -0.766206
 H         4.772104         1.906425         0.707859
 H         2.155308         0.387579         2.090269
