19
Iteration:   783
 C         4.314875        -1.773674         0.557198
 C         3.149172        -0.809185         0.250665
 O         2.006345        -1.173721        -0.464543
 C         1.383740         0.057140        -0.103837
 C        -0.112231        -0.136784        -0.061794
 C         2.228492         1.053815        -1.051471
 C         3.337668         0.609816        -0.031376
 O         4.582792         1.196266         0.148896
 C         2.484868         0.205918         1.149792
 H         4.161142        -2.423428         1.354753
 H         4.392204        -2.395095        -0.326922
 H         5.206765        -1.136753         0.678193
 H        -0.420712        -0.410985         0.930808
 H        -0.718204         0.735341        -0.308398
 H        -0.431240        -0.912022        -0.862428
 H         2.361083         0.723193        -2.089440
 H         1.966286         2.062725        -0.828084
 H         4.587707         2.146253         0.284738
 H         2.757197         0.331209         2.169441
