19
Iteration:  1307charge 0 multiplicity 1
 C         4.322827        -1.789896         0.684710
 C         3.210671        -0.838638         0.241016
 O         2.024100        -1.291146        -0.402801
 C         1.407815         0.086092        -0.130490
 C        -0.139310        -0.062232        -0.061843
 C         2.110500         1.109867        -1.013768
 C         3.346710         0.608541        -0.107448
 O         4.618655         1.164562         0.094142
 C         2.492190         0.226598         1.035635
 H         3.758059        -2.520400         1.170733
 H         4.936237        -2.147982        -0.156917
 H         4.946221        -1.357637         1.408329
 H        -0.392991        -1.136782         0.087355
 H        -0.416971         0.578307         0.788555
 H        -0.454738         0.260983        -1.052981
 H         2.110810         0.973241        -2.097387
 H         1.824070         2.157194        -0.803803
 H         4.610276         2.126504         0.270093
 H         2.509388         0.565939         2.008968
