19
Iteration:  4319
 C         4.227414        -1.758947         0.805296
 C         3.132584        -0.827514         0.306386
 O         2.072110        -1.268241        -0.525907
 C         1.416684        -0.005869        -0.050848
 C        -0.122635        -0.122032        -0.029956
 C         2.190315         1.066400        -0.934226
 C         3.371686         0.601340        -0.168107
 O         4.693449         1.260593        -0.008181
 C         2.383196         0.204144         1.028401
 H         3.790096        -2.534484         1.462730
 H         4.641295        -2.203054        -0.090984
 H         5.098045        -1.103583         1.152920
 H        -0.581572        -0.511206         0.886226
 H        -0.428003         0.916540        -0.313740
 H        -0.343589        -0.759206        -0.860866
 H         2.174835         0.987516        -2.028700
 H         1.948007         2.047831        -0.531414
 H         4.555764         2.213234        -0.096642
 H         2.439316         0.736230         1.938059
