19
Iteration:  1608charge 0 multiplicity 1
 C         4.342124        -1.648568         0.573805
 C         3.112286        -0.858415         0.311161
 O         1.969979        -1.305170        -0.394066
 C         1.399634        -0.001184        -0.107456
 C        -0.092531         0.013867        -0.113467
 C         2.158734         0.979758        -0.913212
 C         3.388781         0.623721        -0.072068
 O         4.684267         1.114063         0.023629
 C         2.397010         0.293231         1.066103
 H         4.335430        -2.192947         1.589210
 H         4.663289        -2.195597        -0.308285
 H         5.185187        -1.066938         0.937816
 H        -0.687322        -0.585223         0.682187
 H        -0.440396         1.063653        -0.252533
 H        -0.168907        -0.555643        -1.144842
 H         1.947188         0.861350        -2.047097
 H         1.963674         2.029850        -0.760716
 H         4.604889         1.949542         0.537117
 H         2.385491         0.475799         2.214213
