19
Iteration:  1818charge 0 multiplicity 1
 C         4.216515        -1.817466         0.575877
 C         3.126417        -0.842129         0.441896
 O         2.094202        -1.248791        -0.440021
 C         1.387418         0.017122        -0.115737
 C        -0.088903        -0.025707        -0.076474
 C         2.241714         0.905313        -1.063349
 C         3.380955         0.660557         0.005702
 O         4.632387         1.261737        -0.010134
 C         2.402972         0.272162         1.148781
 H         4.285121        -2.687944         1.210861
 H         4.300862        -2.038509        -0.487613
 H         5.056466        -1.227558         0.898588
 H        -0.594399        -0.661432         0.589475
 H        -0.287905         1.023670         0.232596
 H        -0.621139        -0.205247        -1.090379
 H         2.191986         0.439971        -2.076673
 H         1.796246         1.924284        -1.093861
 H         4.722417         2.155079         0.296017
 H         2.254692         0.593685         2.185917
