19
Iteration:  3447
 C         4.207724        -1.774863         0.786782
 C         3.050747        -0.927409         0.322885
 O         2.027498        -1.318200        -0.475273
 C         1.449106        -0.028907        -0.183604
 C        -0.044823         0.036438         0.060078
 C         2.273724         0.985254        -1.015287
 C         3.414431         0.621295        -0.065044
 O         4.636759         1.356469        -0.031651
 C         2.412974         0.199025         0.958832
 H         3.797149        -2.636898         1.415199
 H         4.751049        -2.271439        -0.068891
 H         4.861001        -1.195459         1.399992
 H        -0.156057        -0.761895         0.798693
 H        -0.479957         0.869532         0.481923
 H        -0.653211        -0.210021        -0.864744
 H         2.510854         0.848612        -2.119283
 H         1.790935         2.021221        -0.876867
 H         4.610810         2.339101         0.156338
 H         1.907779         0.614552         1.863981
