19
Iteration:  1437charge 0 multiplicity 1
 C         4.303054        -1.685700         0.528054
 C         3.173615        -0.804785         0.368084
 O         2.056755        -1.300613        -0.421661
 C         1.396147         0.106407        -0.114864
 C        -0.110202        -0.031021        -0.078173
 C         2.226663         0.974419        -0.989581
 C         3.320524         0.690858        -0.010740
 O         4.626623         1.107385         0.053028
 C         2.407484         0.238927         1.141672
 H         3.994252        -2.618224         1.024097
 H         4.512018        -2.202559        -0.471713
 H         5.169488        -1.293339         1.041403
 H        -0.564474        -0.781691         0.619664
 H        -0.508021         1.025214        -0.139686
 H        -0.382115        -0.464945        -1.147851
 H         2.264072         0.658033        -2.056662
 H         1.785547         1.989755        -0.797740
 H         4.747436         2.046236        -0.067478
 H         2.173875         0.425971         2.227753
