19
Iteration:  3628charge 0 multiplicity 1
 C         4.249846        -1.805540         0.775141
 C         3.223520        -0.775422         0.246377
 O         2.104582        -1.334503        -0.474747
 C         1.338559         0.024128        -0.080685
 C        -0.116508         0.011506         0.001809
 C         2.263632         0.888288        -1.067950
 C         3.336337         0.729537        -0.048923
 O         4.578903         1.282122        -0.040659
 C         2.400019         0.246584         1.011180
 H         3.635306        -2.454215         1.403590
 H         4.662815        -2.460454        -0.018505
 H         5.168487        -1.405956         1.360046
 H        -0.435160        -0.725185         0.767051
 H        -0.402505         0.988510         0.367477
 H        -0.452720        -0.158251        -0.980464
 H         2.313499         0.512311        -2.123682
 H         1.940701         1.936615        -0.954880
 H         4.600158         1.881482         0.700744
 H         2.420540         0.459891         2.129590
