19
Iteration:  4018
 C         4.246513        -1.733973         0.782360
 C         3.186378        -0.822025         0.315429
 O         2.031454        -1.300837        -0.393892
 C         1.385236        -0.020906        -0.079035
 C        -0.045351        -0.079831        -0.078800
 C         2.148503         1.112690        -1.040684
 C         3.368107         0.691778        -0.109307
 O         4.658223         1.166457        -0.076024
 C         2.415155         0.207555         1.042146
 H         3.960726        -2.514716         1.518420
 H         4.934733        -2.301474         0.101343
 H         5.042474        -1.054750         1.280518
 H        -0.297514        -1.105439         0.321378
 H        -0.661345         0.778476         0.357942
 H        -0.402921        -0.127741        -1.076273
 H         2.225009         1.165502        -2.165060
 H         1.613834         2.094469        -0.754005
 H         4.594248         2.008584         0.385419
 H         2.234729         0.501991         2.016851
