19
Iteration:  2740charge 0 multiplicity 1
 C         4.186223        -1.849143         0.824676
 C         3.148031        -0.844784         0.360784
 O         2.083153        -1.167573        -0.608942
 C         1.401419         0.042428        -0.176851
 C        -0.140020        -0.136969         0.053496
 C         2.274475         1.062967        -0.996501
 C         3.388956         0.738753        -0.106607
 O         4.663456         1.215445        -0.095651
 C         2.384233         0.165575         1.145130
 H         3.711526        -2.576000         1.462641
 H         4.633612        -2.373141        -0.021944
 H         5.079527        -1.283955         1.238309
 H        -0.235012        -0.932210         0.859479
 H        -0.690636         0.814857         0.425227
 H        -0.514071        -0.288513        -0.870612
 H         2.212340         0.809589        -2.026742
 H         2.097678         2.107048        -0.825457
 H         4.541369         2.152453         0.032682
 H         2.233483         0.224543         2.196701
