19
Iteration:  4760
 C         4.368229        -1.752733         0.638532
 C         3.202180        -0.897211         0.232526
 O         1.961765        -1.408048        -0.374458
 C         1.363235        -0.021451        -0.068306
 C        -0.047258         0.074970        -0.085666
 C         2.208713         1.004272        -0.973539
 C         3.351556         0.611367        -0.085685
 O         4.579617         1.381233         0.089141
 C         2.373309         0.251167         1.078558
 H         4.354167        -2.226443         1.656384
 H         4.461042        -2.561602        -0.164947
 H         5.318748        -1.278280         0.611813
 H        -0.561062        -0.758592         0.236479
 H        -0.514543         0.904543         0.411608
 H        -0.317119         0.131193        -1.187353
 H         2.170687         0.686980        -2.055054
 H         1.809689         2.000975        -0.799130
 H         5.286673         1.180835        -0.615975
 H         2.214229         0.669628         2.102757
