19
Iteration:  2661
 C         4.344587        -1.735414         0.581086
 C         3.117462        -0.803694         0.313708
 O         1.967866        -1.336448        -0.331389
 C         1.409361        -0.013002        -0.114768
 C        -0.099046         0.110252        -0.093508
 C         2.257863         0.924514        -1.039706
 C         3.359730         0.589151         0.007245
 O         4.622443         1.248355         0.018647
 C         2.411190         0.227641         1.066937
 H         3.966342        -2.787738         0.676751
 H         4.861532        -1.674336        -0.402212
 H         4.979349        -1.344443         1.345397
 H        -0.531591        -0.461843         0.810252
 H        -0.320611         1.152743         0.046757
 H        -0.486444        -0.337941        -1.062777
 H         2.416490         0.575461        -2.045229
 H         1.768834         1.871850        -0.994111
 H         4.441618         2.144884         0.264897
 H         2.574568         0.236932         2.175982
