19
Iteration:  4110charge 0 multiplicity 1
 C         4.309212        -1.859436         0.724352
 C         3.224357        -0.892664         0.334624
 O         2.048051        -1.318341        -0.338315
 C         1.399596        -0.025875        -0.095990
 C        -0.107064        -0.031555        -0.110460
 C         2.070025         1.052779        -1.008434
 C         3.341713         0.686734        -0.181580
 O         4.667339         1.290202         0.042896
 C         2.439998         0.261080         0.984114
 H         3.885847        -2.716568         1.284761
 H         4.846075        -2.331827        -0.142212
 H         5.123089        -1.279037         1.172708
 H        -0.585348        -0.377949         0.801144
 H        -0.405639         0.998603        -0.218148
 H        -0.590806        -0.448727        -1.063024
 H         2.218151         0.832827        -2.059726
 H         1.781073         2.063644        -0.887246
 H         4.560756         2.166486         0.461255
 H         2.320833         0.807982         2.077425
