19
Iteration:  2745charge 0 multiplicity 1
 C         4.213345        -1.824356         0.824614
 C         3.185467        -0.856187         0.341564
 O         2.084381        -1.163065        -0.611735
 C         1.362341         0.074572        -0.187570
 C        -0.140620        -0.107671         0.072757
 C         2.217164         1.069647        -1.003062
 C         3.442947         0.678726        -0.081803
 O         4.643945         1.205048        -0.069500
 C         2.429321         0.173725         1.127783
 H         3.834046        -2.538734         1.612099
 H         4.516085        -2.485535        -0.022207
 H         5.073425        -1.417634         1.342102
 H        -0.309680        -0.967878         0.683568
 H        -0.611742         0.794674         0.377927
 H        -0.637569        -0.397246        -0.980933
 H         2.173205         0.796402        -2.120840
 H         1.873167         2.175066        -0.910401
 H         4.526311         2.201209         0.017607
 H         2.128591         0.234771         2.217880
