19
Iteration:  3754charge 0 multiplicity 1
 C         4.378740        -1.744861         0.696973
 C         3.082541        -0.931551         0.355490
 O         1.974584        -1.403363        -0.407580
 C         1.304511         0.108147        -0.079374
 C        -0.130330        -0.010953        -0.060545
 C         2.183913         0.951077        -1.056117
 C         3.439478         0.630881        -0.093830
 O         4.665334         1.325697        -0.002467
 C         2.450000         0.280674         1.023937
 H         4.107980        -2.473445         1.457586
 H         4.814260        -2.327010        -0.126586
 H         5.206347        -1.026802         0.966441
 H        -0.381976        -0.509317         0.877898
 H        -0.546807         1.058411        -0.286504
 H        -0.299037        -0.584917        -1.057386
 H         2.240718         0.756919        -2.116248
 H         2.084239         2.051671        -0.953152
 H         4.580501         2.015746         0.654918
 H         2.176201         0.439850         2.162338
