19
Iteration:  3557
 C         4.251182        -1.705332         0.633633
 C         3.204334        -0.802041         0.463332
 O         2.022306        -1.256690        -0.400303
 C         1.443028        -0.019944        -0.042915
 C        -0.119524        -0.047092        -0.139866
 C         2.172267         0.958570        -1.069043
 C         3.405906         0.711550        -0.079893
 O         4.625471         1.159305        -0.006407
 C         2.393429         0.241813         1.116223
 H         3.964491        -2.584718         1.298840
 H         4.485824        -2.078587        -0.394644
 H         5.082871        -1.144461         0.932412
 H        -0.705498        -0.485108         0.680751
 H        -0.405539         1.015869        -0.227841
 H        -0.350854        -0.670941        -1.130781
 H         2.319263         0.562111        -2.098105
 H         1.831800         2.008041        -0.904593
 H         4.791972         2.087320         0.109218
 H         2.345619         0.359802         2.129821
