19
Iteration:  3635charge 0 multiplicity 1
 C         4.214292        -1.838968         0.802805
 C         3.232205        -0.787196         0.269763
 O         2.060697        -1.284701        -0.481622
 C         1.400463        -0.101689        -0.097489
 C        -0.106870        -0.033349         0.008424
 C         2.176780         0.901972        -1.058921
 C         3.342037         0.715564        -0.093070
 O         4.642220         1.306343        -0.050500
 C         2.396050         0.313235         1.033669
 H         3.724301        -2.615291         1.392100
 H         4.721376        -2.316542        -0.045568
 H         5.069483        -1.311003         1.269788
 H        -0.598463        -0.711717         0.719032
 H        -0.308244         1.037823         0.414480
 H        -0.448087         0.073519        -1.054197
 H         2.646522         0.688945        -2.045831
 H         1.873835         1.966272        -0.975411
 H         4.600135         1.861384         0.763629
 H         2.343790         0.507946         2.141867
