19
Iteration:   271
 C         4.203801        -1.852199         0.603242
 C         3.150433        -0.822433         0.378352
 O         2.113219        -1.304032        -0.484214
 C         1.417659        -0.011761        -0.165668
 C        -0.060629        -0.032510         0.021977
 C         2.224068         1.024447        -1.018218
 C         3.397288         0.657956        -0.050686
 O         4.567035         1.387280         0.022137
 C         2.388834         0.202863         1.072542
 H         3.598724        -2.710130         0.864836
 H         4.381811        -2.289778        -0.488191
 H         5.049971        -1.656689         1.213256
 H        -0.528253        -0.605013         0.881145
 H        -0.462895         1.078059         0.224492
 H        -0.487792        -0.266410        -0.989520
 H         2.331045         0.867367        -2.148962
 H         1.905793         2.077937        -0.871697
 H         4.943423         1.502642         0.925062
 H         2.460166         0.243648         2.139305
