19
Iteration:   943
 C         4.336193        -1.715115         0.557182
 C         3.171005        -0.876253         0.188373
 O         1.890754        -1.281025        -0.334680
 C         1.374390         0.019693        -0.129252
 C        -0.163472        -0.144157        -0.121952
 C         2.241469         1.079823        -0.926323
 C         3.403786         0.665745        -0.028774
 O         4.715148         1.244963         0.087791
 C         2.420583         0.180933         1.044450
 H         4.115676        -2.565871         1.306086
 H         4.775372        -2.219394        -0.272308
 H         5.106862        -1.114518         1.085191
 H        -0.526735        -0.892305         0.520591
 H        -0.659385         0.808303         0.184976
 H        -0.418938        -0.134604        -1.160684
 H         2.243827         0.974887        -2.027635
 H         2.063124         2.106568        -0.580882
 H         4.564776         2.163215         0.357799
 H         2.362890         0.481270         1.993248
