19
Iteration:  1690charge 0 multiplicity 1
 C         4.209555        -1.988357         0.824096
 C         3.222288        -0.837784         0.196767
 O         2.018527        -1.233043        -0.411954
 C         1.381242         0.006127        -0.105466
 C        -0.092388        -0.053556         0.003634
 C         2.253548         1.024133        -1.055321
 C         3.365174         0.647156        -0.172024
 O         4.582883         1.347140         0.066532
 C         2.515447         0.283081         0.963223
 H         3.624980        -2.831611         0.964682
 H         4.997600        -2.390299         0.089881
 H         4.868186        -1.505417         1.573497
 H        -0.346205        -0.962062         0.503709
 H        -0.571204         0.748330         0.576757
 H        -0.668475        -0.085150        -0.847280
 H         2.183533         0.755828        -2.050777
 H         1.866926         1.999458        -0.694601
 H         4.451176         2.323431        -0.015382
 H         2.447263         0.719034         2.021457
