19
Iteration:  2474charge 0 multiplicity 1
 C         4.389619        -1.677989         0.665260
 C         3.174294        -0.814970         0.339917
 O         2.009877        -1.328468        -0.436062
 C         1.414619         0.101131        -0.105191
 C        -0.125249         0.049051        -0.017907
 C         2.189050         0.962367        -1.090734
 C         3.282522         0.634517        -0.081892
 O         4.655829         1.122229         0.007860
 C         2.370722         0.191151         1.150124
 H         4.008949        -2.709285         0.705088
 H         4.898599        -1.746141        -0.334826
 H         5.184714        -1.420515         1.394163
 H        -0.489015        -0.567454         0.710791
 H        -0.449085         1.021736         0.178832
 H        -0.581578        -0.146765        -1.066004
 H         2.442168         0.480698        -2.108617
 H         1.699680         1.979512        -1.154612
 H         4.680450         1.892518         0.554731
 H         2.336392         0.729137         2.117563
