19
Iteration:  2539charge 0 multiplicity 1
 C         4.223652        -1.923849         0.744796
 C         3.149781        -0.806886         0.333281
 O         2.134047        -1.191153        -0.541443
 C         1.425081         0.019875        -0.091414
 C        -0.072788        -0.023322        -0.027672
 C         2.202286         0.986495        -1.008150
 C         3.364658         0.663036         0.028357
 O         4.608606         1.252636        -0.138383
 C         2.360986         0.259746         1.152843
 H         3.837350        -2.644777         1.478558
 H         4.430159        -2.352395        -0.257204
 H         5.179932        -1.546889         1.146957
 H        -0.338610        -0.644114         0.771578
 H        -0.269558         0.986180         0.204115
 H        -0.539651        -0.483705        -0.985882
 H         2.297543         0.690139        -2.069399
 H         1.698505         1.897051        -0.815375
 H         4.500847         2.212382         0.071123
 H         2.212876         0.369233         2.200040
