19
Iteration:  2446
 C         4.229640        -1.691014         0.647294
 C         3.129292        -0.818627         0.356553
 O         2.027982        -1.272185        -0.406420
 C         1.484032        -0.016740        -0.152955
 C        -0.121809        -0.044378        -0.065256
 C         2.282163         0.976311        -0.932927
 C         3.372012         0.654454        -0.044521
 O         4.675003         1.194679        -0.114581
 C         2.337297         0.216370         1.099332
 H         3.828903        -2.651331         1.062450
 H         4.684404        -1.808466        -0.351718
 H         5.006507        -1.323967         1.277440
 H        -0.597751        -0.729691         0.807269
 H        -0.075692         1.036796         0.342887
 H        -0.786507        -0.046082        -0.884685
 H         2.453232         0.637705        -1.921035
 H         1.802396         1.941360        -0.789762
 H         4.793604         2.043737         0.337066
 H         1.827264         0.382371         2.018917
