19
Iteration:  4621charge 0 multiplicity 1
 C         4.302943        -1.824134         0.808135
 C         3.221788        -0.894387         0.289393
 O         2.026738        -1.363986        -0.449119
 C         1.363431        -0.002844        -0.148823
 C        -0.115749         0.024336        -0.074289
 C         2.240450         1.131137        -0.931055
 C         3.343936         0.724507         0.045973
 O         4.584279         1.359734        -0.221191
 C         2.372347         0.161329         1.084146
 H         3.845826        -2.619915         1.343441
 H         4.976928        -2.282718        -0.025921
 H         4.993830        -1.261175         1.455145
 H        -0.358519        -0.883766         0.401174
 H        -0.408152         0.843822         0.612302
 H        -0.484950        -0.069682        -1.184225
 H         2.202053         0.955440        -2.013416
 H         1.815358         2.074147        -0.623253
 H         5.313569         0.811993         0.107634
 H         2.303415         0.232341         2.218414
