19
Iteration:  3283charge 0 multiplicity 1
 C         4.228136        -1.855493         0.821923
 C         3.127330        -0.876283         0.304812
 O         2.084390        -1.237561        -0.469151
 C         1.397541         0.069193        -0.221799
 C        -0.116973        -0.064495         0.032774
 C         2.233985         0.989378        -1.035891
 C         3.481606         0.522470        -0.153230
 O         4.585074         1.376423        -0.087975
 C         2.392436         0.240533         1.114456
 H         3.632660        -2.616084         1.440382
 H         4.843537        -2.332550         0.001351
 H         4.767482        -1.270310         1.596367
 H        -0.429481        -0.882564         0.682531
 H        -0.204831         0.866834         0.534644
 H        -0.647739         0.191448        -0.962631
 H         2.259223         0.613001        -2.101782
 H         1.983783         2.085964        -1.052622
 H         4.612967         1.895005         0.711180
 H         2.276266         0.489010         2.152821
