19
Iteration:   780
 C         4.338518        -1.736008         0.565726
 C         3.141896        -0.822730         0.267311
 O         1.967783        -1.165827        -0.485802
 C         1.362360         0.037122        -0.104768
 C        -0.115411        -0.141947        -0.064150
 C         2.214208         1.038673        -1.050534
 C         3.340577         0.612107        -0.031076
 O         4.607684         1.205268         0.167806
 C         2.537747         0.181215         1.144126
 H         4.117146        -2.593819         1.386340
 H         4.360596        -2.389795        -0.313945
 H         5.247334        -1.081060         0.641347
 H        -0.378979        -0.393773         0.956976
 H        -0.686160         0.801571        -0.389696
 H        -0.464322        -0.751372        -0.916620
 H         2.277024         0.616346        -2.111860
 H         1.878465         2.095278        -0.945268
 H         4.582298         2.156270         0.327518
 H         2.748891         0.452721         2.197118
