19
Iteration:  4567charge 0 multiplicity 1
 C         4.394785        -1.772090         0.610598
 C         3.202317        -0.826421         0.310006
 O         2.000982        -1.414483        -0.374990
 C         1.404852         0.010666        -0.125144
 C        -0.153000         0.092604        -0.014941
 C         2.264191         1.011085        -1.118761
 C         3.358791         0.667299        -0.025910
 O         4.499091         1.340712         0.067155
 C         2.414350         0.213226         1.037391
 H         4.146387        -2.483576         1.361438
 H         4.537775        -2.323887        -0.421406
 H         5.401839        -1.401366         0.976524
 H        -0.251955        -0.753310         0.586053
 H        -0.381904         1.017736         0.556128
 H        -0.730367         0.012150        -1.004502
 H         2.353762         0.539765        -2.094834
 H         1.749834         1.950232        -1.259438
 H         5.085249         0.746046         0.548675
 H         2.177306         0.689508         2.058256
