19
Iteration:  3305
 C         4.259311        -1.801180         0.844531
 C         3.197901        -0.862063         0.311608
 O         1.974499        -1.371275        -0.470425
 C         1.441507        -0.006193        -0.167196
 C        -0.093996         0.046924         0.035053
 C         2.223679         0.978229        -1.026524
 C         3.355800         0.697006        -0.146675
 O         4.589176         1.295046        -0.008534
 C         2.472060         0.216868         0.947063
 H         3.675329        -2.592069         1.407009
 H         4.754862        -2.166763        -0.102395
 H         4.898753        -1.231229         1.533396
 H        -0.339333        -0.884663         0.530372
 H        -0.497886         0.886767         0.576191
 H        -0.464151         0.115634        -1.059946
 H         2.346582         0.742300        -2.101700
 H         1.960790         2.082637        -0.843806
 H         4.836090         2.026135         0.636068
 H         2.265082         0.564284         1.963015
