19
Iteration:   206charge 0 multiplicity 1
 C         4.339546        -1.733606         0.548170
 C         3.085664        -0.861204         0.365852
 O         2.045190        -1.318706        -0.420217
 C         1.391873         0.019241        -0.124753
 C        -0.055230         0.011097        -0.146072
 C         2.252992         1.061334        -0.886837
 C         3.373540         0.552819         0.013130
 O         4.576043         1.336465         0.016308
 C         2.319193         0.167915         1.100065
 H         4.068584        -2.505641         1.261185
 H         4.630152        -2.150196        -0.527126
 H         5.141945        -1.111636         0.916335
 H        -0.559749        -0.714992         0.559461
 H        -0.369903         1.060805         0.269608
 H        -0.438793        -0.162541        -1.151525
 H         2.387674         0.906381        -1.976584
 H         1.970517         2.074869        -0.602974
 H         5.290708         0.832475        -0.376265
 H         2.173089         0.441164         2.120482
