19
Iteration:  4517charge 0 multiplicity 1
 C         4.265644        -1.929381         0.663808
 C         3.215158        -0.783648         0.318060
 O         2.001577        -1.215921        -0.392763
 C         1.381124         0.057791        -0.085132
 C        -0.082918        -0.125988        -0.081139
 C         2.217108         1.017219        -1.056261
 C         3.355001         0.710276        -0.062439
 O         4.530859         1.360719         0.043662
 C         2.464525         0.217747         1.095218
 H         3.863673        -2.669783         1.393788
 H         4.620111        -2.421484        -0.165334
 H         5.110837        -1.535091         1.240309
 H        -0.341363        -0.688680         0.867565
 H        -0.466882         0.871283        -0.233082
 H        -0.268721        -0.677995        -0.945677
 H         2.471683         0.884136        -2.121328
 H         1.935577         2.100711        -0.975966
 H         5.051846         0.927738        -0.664777
 H         2.439244         0.501777         2.149867
