19
Iteration:  2132
 C         4.289991        -1.706200         0.632747
 C         3.190130        -0.896784         0.259675
 O         1.954306        -1.394078        -0.363831
 C         1.380895         0.054421        -0.028730
 C        -0.075575         0.078972        -0.140605
 C         2.154496         0.938413        -0.992353
 C         3.321952         0.645107        -0.112744
 O         4.666812         1.215445         0.091996
 C         2.521808         0.257612         1.059356
 H         4.148210        -2.642715         1.181046
 H         4.755167        -2.137754        -0.252982
 H         5.063627        -1.076770         0.949598
 H        -0.473260        -0.546884         0.630520
 H        -0.684487         1.025164        -0.007351
 H        -0.394398        -0.274711        -1.173610
 H         1.935054         0.708087        -2.070943
 H         1.811221         1.967643        -0.882887
 H         4.698144         2.203524         0.210130
 H         2.529720         0.728068         2.102981
