19
Iteration:  4936charge 0 multiplicity 1
 C         4.218585        -1.808371         0.524839
 C         3.136215        -0.849506         0.278740
 O         1.966937        -1.278704        -0.310988
 C         1.436165         0.022860        -0.032238
 C        -0.063156        -0.164037        -0.144592
 C         2.222881         1.085254        -0.987964
 C         3.406577         0.614511        -0.041814
 O         4.622680         1.285337         0.116289
 C         2.411616         0.383772         1.073332
 H         3.964014        -2.629940         1.161305
 H         4.543353        -2.386943        -0.433741
 H         5.211366        -1.322242         0.813367
 H        -0.602903        -0.781945         0.518302
 H        -0.566468         0.764508         0.094767
 H        -0.584934        -0.386605        -1.141671
 H         2.333678         0.736457        -2.037301
 H         2.083576         2.177721        -0.967026
 H         5.298740         1.300149        -0.620272
 H         2.385137         0.579107         2.158299
