19
Iteration:  4884
 C         4.291937        -1.695006         0.617354
 C         3.234745        -0.837824         0.209668
 O         1.961367        -1.381631        -0.501034
 C         1.420104        -0.063847        -0.118010
 C        -0.094442         0.166195         0.062850
 C         2.237404         0.863249        -1.016214
 C         3.357533         0.679819        -0.024906
 O         4.534019         1.351244         0.124150
 C         2.423968         0.147710         1.025237
 H         4.069176        -2.700465         0.893314
 H         5.174667        -1.815485        -0.108776
 H         4.748309        -1.185569         1.578178
 H        -0.716917        -0.116368         0.978376
 H        -0.378244         1.215572        -0.161847
 H        -0.614926        -0.430523        -0.662769
 H         2.635441         0.812891        -2.062680
 H         1.783541         1.893465        -0.806302
 H         5.295921         0.892004        -0.355003
 H         2.344537         0.360599         2.124496
