19
Iteration:  1017
 C         4.181053        -1.835280         0.594603
 C         3.105155        -0.850299         0.281474
 O         2.056034        -1.330556        -0.497865
 C         1.432798         0.043550        -0.133011
 C        -0.050570        -0.069841         0.013107
 C         2.233971         1.104304        -0.995577
 C         3.416128         0.609787        -0.074188
 O         4.598431         1.358040         0.099741
 C         2.432078         0.152428         1.052994
 H         3.967160        -2.585225         1.436704
 H         4.548090        -2.409313        -0.215246
 H         4.908683        -1.243723         1.135058
 H        -0.249539        -0.428265         1.053336
 H        -0.695744         0.899590        -0.276185
 H        -0.379463        -0.826497        -0.759065
 H         2.380941         1.009421        -2.070965
 H         1.967187         2.119670        -0.558676
 H         4.296184         2.303442         0.140280
 H         2.510396         0.427308         2.066435
