19
Iteration:    71charge 0 multiplicity 1
 C         4.386309        -1.828125         0.529870
 C         3.191123        -0.919342         0.295645
 O         1.934871        -1.308803        -0.371332
 C         1.421573         0.034146        -0.056339
 C        -0.081898         0.013845        -0.102020
 C         2.206571         1.059945        -0.918744
 C         3.348082         0.702445        -0.091434
 O         4.563857         1.356621         0.159988
 C         2.394633         0.169491         0.994687
 H         4.084845        -2.685050         1.240778
 H         4.744583        -2.345712        -0.410107
 H         5.240148        -1.333372         1.166898
 H        -0.555247        -0.847551         0.434829
 H        -0.493191         1.056327         0.021471
 H        -0.387265        -0.277421        -1.206091
 H         2.301157         0.718636        -1.987640
 H         1.887442         2.124200        -0.777360
 H         5.202999         1.146645        -0.535937
 H         2.320857         0.460388         2.085487
