19
Iteration:   478charge 0 multiplicity 1
 C         4.111798        -1.772302         0.717691
 C         3.220744        -0.792609         0.180662
 O         2.066858        -1.233989        -0.569394
 C         1.397834        -0.061024        -0.093889
 C        -0.103881        -0.125290         0.008860
 C         2.213177         1.062393        -0.940165
 C         3.388574         0.739819        -0.007167
 O         4.658813         1.241481        -0.023910
 C         2.438720         0.155738         1.051478
 H         3.672725        -2.569703         1.380494
 H         4.788141        -2.392355        -0.013934
 H         4.721643        -1.100242         1.421799
 H        -0.458401        -0.852397         0.718519
 H        -0.355643         0.884821         0.419262
 H        -0.585552        -0.161350        -0.945029
 H         2.394892         0.872984        -2.015913
 H         1.854747         2.030728        -0.572274
 H         4.586422         2.161246         0.324085
 H         2.501394         0.089461         2.210977
