19
Iteration:  3742
 C         4.366664        -1.739037         0.705570
 C         3.140629        -0.912222         0.407272
 O         1.977213        -1.349736        -0.418544
 C         1.447759         0.022277        -0.176924
 C        -0.134631         0.031775        -0.111817
 C         2.221239         1.000240        -1.008443
 C         3.318391         0.664220        -0.072875
 O         4.642969         1.242699        -0.029644
 C         2.435680         0.242173         1.067078
 H         4.353103        -2.516396         1.507673
 H         4.659990        -2.156213        -0.284479
 H         5.109437        -1.029827         1.089532
 H        -0.446619        -0.505552         0.767699
 H        -0.744745         0.953356         0.020052
 H        -0.691700        -0.686552        -0.852751
 H         2.257430         0.660780        -2.035599
 H         1.703666         1.976557        -0.870650
 H         4.593755         2.093711         0.455060
 H         2.466128         0.767505         2.110238
