19
Iteration:  2958charge 0 multiplicity 1
 C         4.207062        -1.840764         0.675867
 C         3.226225        -0.816359         0.311425
 O         2.011302        -1.258062        -0.385811
 C         1.414137         0.065327        -0.033855
 C        -0.069030        -0.008115        -0.088586
 C         2.184040         0.924896        -1.048457
 C         3.377123         0.654289        -0.160605
 O         4.603027         1.281072         0.078587
 C         2.483487         0.198218         1.019985
 H         3.909777        -2.577687         1.441776
 H         4.508477        -2.341685        -0.257747
 H         5.042016        -1.220710         1.181064
 H        -0.277563        -0.956417         0.465372
 H        -0.558090         0.939140         0.331704
 H        -0.399384        -0.043304        -1.077481
 H         2.025673         0.599536        -2.135208
 H         1.747822         1.940272        -1.006169
 H         4.304750         2.225318         0.255323
 H         2.724417         0.500735         2.068345
