19
Iteration:  3971charge 0 multiplicity 1
 C         4.208321        -1.818333         0.742457
 C         3.184551        -0.796837         0.344748
 O         2.051018        -1.347687        -0.423162
 C         1.403287         0.032991        -0.116072
 C        -0.065407        -0.104210        -0.074513
 C         2.214242         1.070974        -0.972012
 C         3.373538         0.717597        -0.075688
 O         4.646317         1.278897        -0.069243
 C         2.401833         0.216677         1.090568
 H         3.850443        -2.438251         1.569849
 H         4.243330        -2.548289        -0.089015
 H         5.267758        -1.418142         0.931716
 H        -0.402124        -0.658574         0.780606
 H        -0.507429         0.882283        -0.287114
 H        -0.427850        -0.709395        -0.959249
 H         2.287714         0.874195        -2.083054
 H         1.799745         2.123156        -0.900790
 H         4.592340         2.275330        -0.053373
 H         2.229910         0.455560         2.154406
