19
Iteration:   298charge 0 multiplicity 1
 C         4.264302        -1.930979         0.692473
 C         3.139601        -0.906372         0.219368
 O         1.932946        -1.273519        -0.550944
 C         1.434692         0.059416        -0.189602
 C        -0.059682        -0.077767         0.064506
 C         2.281008         1.036991        -0.971385
 C         3.411661         0.687785        -0.004229
 O         4.616339         1.402321        -0.017138
 C         2.419674         0.208387         1.050616
 H         3.497437        -2.556192         1.250293
 H         4.859519        -2.387188        -0.062615
 H         4.866868        -1.489964         1.547263
 H        -0.213097        -0.938433         0.686277
 H        -0.667414         0.644359         0.453131
 H        -0.409770        -0.452792        -0.907347
 H         2.481479         1.131255        -2.009921
 H         1.909964         2.001786        -0.611345
 H         4.628576         2.125748         0.670514
 H         2.293980         0.499331         2.175353
