19
Iteration:  4425charge 0 multiplicity 1
 C         4.238222        -1.698322         0.614644
 C         3.170855        -0.844475         0.359869
 O         2.048442        -1.332904        -0.349823
 C         1.411182        -0.010997        -0.153763
 C        -0.057098        -0.020557        -0.047660
 C         2.194291         0.876252        -1.049790
 C         3.370172         0.660432        -0.100002
 O         4.634716         1.260599         0.046146
 C         2.365828         0.308389         0.994772
 H         4.009415        -2.511341         1.249909
 H         4.750938        -2.006806        -0.339140
 H         4.786251        -1.033714         1.278026
 H        -0.459259        -0.817633         0.489322
 H        -0.219581         0.880379         0.562057
 H        -0.573911         0.262024        -1.022259
 H         2.419926         0.525629        -2.091911
 H         1.828129         1.904404        -1.065013
 H         4.575707         1.878018         0.780931
 H         2.361963         0.386286         2.056359
