19
Iteration:    39charge 0 multiplicity 1
 C         4.283691        -1.657176         0.528634
 C         3.095203        -0.828958         0.426513
 O         2.057934        -1.247613        -0.430622
 C         1.363837         0.002559        -0.118885
 C        -0.177839        -0.095815        -0.178286
 C         2.237233         1.076800        -0.903133
 C         3.354312         0.668339        -0.023285
 O         4.632645         1.148304         0.085966
 C         2.494561         0.202162         1.133050
 H         4.042344        -2.548813         1.164058
 H         4.601188        -2.065211        -0.486869
 H         5.249985        -1.101117         0.751882
 H        -0.610231        -0.850928         0.523093
 H        -0.724899         0.840521         0.161489
 H        -0.367842        -0.218481        -1.293810
 H         2.330322         0.900542        -2.012432
 H         1.923464         2.124261        -0.655955
 H         4.950820         1.370550        -0.798346
 H         2.472532         0.286452         2.257901
