19
Iteration:  1655charge 0 multiplicity 1
 C         4.227081        -1.793411         0.697436
 C         3.178592        -0.845831         0.289971
 O         2.027463        -1.291467        -0.434396
 C         1.434953        -0.033311        -0.053430
 C        -0.072154         0.030647        -0.084981
 C         2.188609         0.922718        -0.977881
 C         3.378078         0.718347        -0.054610
 O         4.656219         1.253749        -0.052154
 C         2.360818         0.248984         1.069785
 H         3.983922        -2.721404         1.180706
 H         4.739676        -1.939756        -0.295072
 H         4.930845        -1.403969         1.416544
 H        -0.355679        -0.793740         0.525684
 H        -0.285206         0.919263         0.481535
 H        -0.527215        -0.040242        -1.093073
 H         2.398381         0.740797        -2.016747
 H         1.797091         1.922676        -0.923244
 H         4.542353         2.185232         0.262302
 H         2.217012         0.318439         2.066331
