19
Iteration:  2239charge 0 multiplicity 1
 C         4.186350        -1.826083         0.771281
 C         3.187863        -0.825478         0.321823
 O         1.987927        -1.283347        -0.442333
 C         1.443349        -0.010521        -0.124463
 C        -0.079265        -0.076851        -0.006774
 C         2.160962         1.050118        -0.956428
 C         3.414690         0.661203        -0.111008
 O         4.671644         1.263026        -0.043628
 C         2.518164         0.252799         0.978301
 H         3.503243        -2.538844         1.398684
 H         4.595124        -2.288149        -0.163338
 H         4.865211        -1.369317         1.489383
 H        -0.721073        -0.901187         0.425074
 H        -0.605752         0.891719         0.060965
 H        -0.333526        -0.313293        -1.032020
 H         2.038193         1.046754        -2.096116
 H         1.863811         2.047510        -0.501288
 H         4.491392         2.246893         0.075307
 H         2.505060         0.362600         2.100491
