19
Iteration:  2540
 C         4.224204        -1.920401         0.745867
 C         3.145366        -0.799001         0.340934
 O         2.140113        -1.199879        -0.556933
 C         1.429591         0.020279        -0.082706
 C        -0.079057        -0.027139        -0.037238
 C         2.206398         0.989638        -0.999578
 C         3.362954         0.655580         0.034744
 O         4.605758         1.252566        -0.144430
 C         2.364681         0.270121         1.152564
 H         3.810823        -2.649882         1.488919
 H         4.411757        -2.385931        -0.258644
 H         5.168345        -1.566993         1.120483
 H        -0.309475        -0.652278         0.806975
 H        -0.263320         0.964301         0.218657
 H        -0.552907        -0.461065        -0.963098
 H         2.263347         0.642195        -2.067956
 H         1.716619         1.953005        -0.806567
 H         4.514513         2.227275         0.086226
 H         2.192913         0.385488         2.192723
