19
Iteration:  1463
 C         4.294801        -1.667297         0.595926
 C         3.184118        -0.803261         0.363284
 O         2.022000        -1.282052        -0.482633
 C         1.404022        -0.022156        -0.206002
 C        -0.167022        -0.047137         0.003499
 C         2.314059         1.041347        -0.972005
 C         3.367552         0.646751        -0.000252
 O         4.696276         1.125408        -0.043961
 C         2.287832         0.217156         1.176818
 H         4.109504        -2.620966         1.047234
 H         4.772746        -1.955616        -0.259014
 H         4.887233        -1.129658         1.345368
 H        -0.543082        -0.980093         0.490348
 H        -0.391461         1.036841         0.327080
 H        -0.652428        -0.162771        -0.938462
 H         2.508114         0.810713        -2.010199
 H         1.835831         2.062490        -0.777867
 H         4.629025         2.076366         0.006196
 H         1.863059         0.540491         2.116479
