19
Iteration:  4084
 C         4.272734        -1.728492         0.648173
 C         3.167029        -0.831357         0.374106
 O         1.994375        -1.397146        -0.412169
 C         1.428974        -0.033928        -0.169485
 C        -0.045071         0.087237        -0.062257
 C         2.301147         0.838136        -1.029221
 C         3.320234         0.664847        -0.043791
 O         4.561535         1.325388        -0.036043
 C         2.361741         0.277610         1.139369
 H         3.841012        -2.727126         0.974511
 H         4.913813        -1.926038        -0.279675
 H         5.067072        -1.277107         1.245653
 H        -0.294397        -0.693176         0.741121
 H        -0.550700         1.020531         0.334432
 H        -0.498789        -0.115172        -1.012132
 H         2.708254         0.578262        -2.061144
 H         1.984217         1.947086        -1.101033
 H         4.449381         2.238881         0.317467
 H         2.529043         0.372738         2.187489
