19
Iteration:  3330
 C         4.215241        -1.727119         0.707858
 C         3.213688        -0.788338         0.257712
 O         2.036964        -1.308576        -0.378293
 C         1.410089        -0.067502        -0.092536
 C        -0.095631         0.054265        -0.097117
 C         2.184779         0.921185        -1.091543
 C         3.315399         0.644629        -0.101224
 O         4.690748         1.211673         0.063529
 C         2.389722         0.234207         1.079382
 H         3.833534        -2.507962         1.445704
 H         4.653730        -2.077500        -0.262497
 H         4.875171        -1.033644         1.184154
 H        -0.289555        -0.730250         0.666782
 H        -0.475976         1.093860         0.397764
 H        -0.564979        -0.054454        -1.091534
 H         2.268722         0.731566        -2.189259
 H         1.905853         1.958791        -0.864344
 H         4.745315         2.213217         0.054799
 H         2.537470         0.256882         2.202881
