19
Iteration:  3136
 C         4.262696        -1.822513         0.769729
 C         3.180669        -0.908644         0.233126
 O         1.952777        -1.301909        -0.357059
 C         1.456938         0.106050        -0.088719
 C        -0.092721        -0.048455        -0.037012
 C         2.228582         1.009789        -1.117209
 C         3.417928         0.597111        -0.111137
 O         4.560487         1.300126         0.043406
 C         2.471599         0.232627         0.992811
 H         3.965208        -2.605811         1.494988
 H         4.746524        -2.201050        -0.172997
 H         5.082274        -1.237137         1.172587
 H        -0.413685        -0.816363         0.639076
 H        -0.433409         0.907487         0.517780
 H        -0.498851        -0.045664        -0.993535
 H         2.388675         0.683569        -2.186141
 H         1.960575         2.114108        -1.014326
 H         4.227314         2.232035         0.257361
 H         2.384361         0.564936         2.061579
