19
Iteration:   150charge 0 multiplicity 1
 C         4.143457        -1.835818         0.741685
 C         3.137909        -0.915226         0.224187
 O         1.931602        -1.286689        -0.558137
 C         1.456093        -0.011358        -0.100537
 C        -0.071917        -0.164195         0.033632
 C         2.282137         1.091270        -0.932599
 C         3.447078         0.672527        -0.144177
 O         4.580568         1.386853         0.172796
 C         2.529372         0.265723         0.959194
 H         3.694092        -2.710491         1.230428
 H         4.722463        -2.222821        -0.243785
 H         4.761982        -1.243861         1.401745
 H        -0.398722        -1.024920         0.710023
 H        -0.687876         0.788997         0.417896
 H        -0.486577        -0.236935        -0.971098
 H         2.337009         1.184781        -2.060592
 H         1.942920         2.062757        -0.578705
 H         5.186718         1.479507        -0.589329
 H         2.372955         0.652073         1.931909
