19
Iteration:  1610charge 0 multiplicity 1
 C         4.327287        -1.648855         0.584618
 C         3.120010        -0.854609         0.325210
 O         1.985358        -1.305924        -0.393766
 C         1.384413         0.007588        -0.111086
 C        -0.094893         0.015061        -0.110267
 C         2.172460         0.984576        -0.912158
 C         3.388257         0.606753        -0.068509
 O         4.674975         1.114528         0.011219
 C         2.394398         0.280963         1.066226
 H         4.345690        -2.181514         1.567663
 H         4.691461        -2.107414        -0.356623
 H         5.186009        -1.027045         0.880103
 H        -0.685251        -0.523661         0.654458
 H        -0.466900         1.008841        -0.232565
 H        -0.171092        -0.499541        -1.146190
 H         1.976416         0.864903        -2.009627
 H         1.954186         2.010522        -0.770359
 H         4.636278         1.939692         0.562589
 H         2.393219         0.433901         2.142293
