19
Iteration:  3581charge 0 multiplicity 1
 C         4.334126        -1.762859         0.670694
 C         3.270438        -0.803754         0.262351
 O         1.949114        -1.416117        -0.378036
 C         1.391567        -0.006868        -0.172776
 C        -0.155625         0.008978        -0.108458
 C         2.197368         0.975952        -0.967668
 C         3.397028         0.681168        -0.042960
 O         4.618534         1.211053         0.071368
 C         2.423365         0.328810         1.046013
 H         3.937045        -2.430392         1.456380
 H         4.644365        -2.371692        -0.198585
 H         5.260463        -1.184552         0.945713
 H        -0.394638        -0.383353         0.871476
 H        -0.623210         1.041916        -0.157746
 H        -0.540426        -0.670172        -0.828080
 H         2.469803         0.721852        -2.031742
 H         1.854680         2.027164        -0.795692
 H         4.567002         2.195095        -0.120236
 H         2.174085         0.832907         1.980576
