19
Iteration:  1684charge 0 multiplicity 1
 C         4.191682        -1.938526         0.783129
 C         3.274260        -0.845976         0.199451
 O         2.020413        -1.271847        -0.409362
 C         1.408872         0.031793        -0.089189
 C        -0.122183        -0.050118        -0.020981
 C         2.196408         1.014500        -1.040343
 C         3.394059         0.641124        -0.150184
 O         4.563229         1.323907         0.073768
 C         2.505760         0.280792         0.971995
 H         3.525767        -2.817061         1.151943
 H         4.969287        -2.177242         0.085535
 H         4.852728        -1.646567         1.633335
 H        -0.315087        -0.958667         0.645793
 H        -0.524165         0.739320         0.653337
 H        -0.697998         0.023149        -1.028590
 H         2.345313         0.894984        -2.200699
 H         1.971769         2.086907        -0.857606
 H         4.359915         2.251809        -0.063149
 H         2.719864         0.730601         1.958318
