19
Iteration:  1340
 C         4.165539        -1.774655         0.712547
 C         3.155642        -0.899386         0.286871
 O         2.055518        -1.304354        -0.513164
 C         1.353019         0.058754        -0.160651
 C        -0.074339        -0.081831         0.053562
 C         2.204208         1.060523        -1.047443
 C         3.434984         0.616598        -0.080258
 O         4.653322         1.378980         0.018009
 C         2.472728         0.153567         1.037492
 H         3.724457        -2.535551         1.293514
 H         4.616478        -2.403336        -0.070620
 H         4.926580        -1.236876         1.177568
 H        -0.472483        -0.971778         0.577570
 H        -0.513818         0.832058         0.592969
 H        -0.572729         0.203643        -0.910413
 H         2.253178         0.788178        -2.097633
 H         1.853150         2.085062        -0.780823
 H         4.716663         1.785012         0.878889
 H         2.322049         0.222868         2.083519
