19
Iteration:  4180charge 0 multiplicity 1
 C         4.301046        -1.818855         0.771155
 C         3.212552        -0.796050         0.342999
 O         2.120289        -1.253803        -0.441214
 C         1.339765        -0.006726        -0.219328
 C        -0.097218        -0.092992        -0.069741
 C         2.226653         1.081340        -0.957895
 C         3.347180         0.706914        -0.014549
 O         4.590739         1.154763        -0.074209
 C         2.349403         0.272720         1.062062
 H         3.915159        -2.404478         1.627639
 H         4.499495        -2.584468         0.000267
 H         5.252555        -1.232491         0.854195
 H        -0.168643        -0.877204         0.745850
 H        -0.453587         0.963760         0.244997
 H        -0.655523        -0.349321        -0.978683
 H         2.260770         0.846190        -2.029579
 H         1.769784         2.095479        -0.771958
 H         4.547130         2.109257        -0.033260
 H         2.237715         0.423703         2.065261
