19
Iteration:   966
 C         4.248992        -1.797828         0.618732
 C         3.165183        -0.852347         0.294618
 O         2.085868        -1.299671        -0.477375
 C         1.444329         0.009087        -0.040817
 C        -0.091447        -0.035240        -0.155662
 C         2.135669         1.111613        -0.880476
 C         3.352795         0.681864        -0.083937
 O         4.580592         1.227216         0.015007
 C         2.507632         0.197230         1.108652
 H         4.005593        -2.577716         1.373791
 H         4.402682        -2.361248        -0.301124
 H         5.228403        -1.387270         0.983491
 H        -0.452164        -0.460647         0.733163
 H        -0.620052         0.885140        -0.280298
 H        -0.297308        -0.563294        -1.069940
 H         2.139071         0.961465        -1.986595
 H         1.711167         2.032530        -0.545835
 H         4.424570         2.077449         0.463971
 H         2.372112         0.342987         2.150542
