19
Iteration:   454
 C         4.306737        -1.812016         0.653789
 C         3.142135        -0.887124         0.318641
 O         2.011887        -1.250029        -0.577790
 C         1.412276         0.146002        -0.141108
 C        -0.123091        -0.081236         0.000856
 C         2.271103         1.061831        -0.979696
 C         3.427957         0.660057        -0.018457
 O         4.611582         1.318000         0.000947
 C         2.358501         0.112162         1.109228
 H         3.947850        -2.795133         1.322302
 H         4.725569        -2.440364        -0.217168
 H         5.084335        -1.355927         1.328569
 H        -0.104550        -0.774306         0.883961
 H        -0.787672         0.825099         0.340509
 H        -0.597509        -0.482706        -0.858513
 H         2.331706         0.489197        -1.963035
 H         2.084302         2.124369        -0.961492
 H         4.375896         2.175176         0.344243
 H         2.149696         0.321778         2.140076
