19
Iteration:  1488
 C         4.258253        -1.752465         0.752470
 C         3.213075        -0.864949         0.243736
 O         2.006765        -1.301885        -0.487280
 C         1.406179         0.049217        -0.092233
 C        -0.075876         0.007212        -0.040347
 C         2.132914         1.076012        -0.967632
 C         3.347941         0.638302        -0.137798
 O         4.644446         1.187542         0.026905
 C         2.468558         0.220131         1.049261
 H         4.030377        -2.727437         1.315085
 H         4.950797        -1.960358        -0.072934
 H         4.728576        -1.196795         1.585094
 H        -0.373115        -1.012025         0.240544
 H        -0.481896         0.764772         0.509736
 H        -0.503593        -0.055626        -1.036840
 H         2.086255         0.711355        -2.043119
 H         1.799769         2.063549        -0.875538
 H         4.549365         2.092272         0.377367
 H         2.513881         0.230600         2.129472
