19
Iteration:   353charge 0 multiplicity 1
 C         4.359976        -1.820401         0.647072
 C         3.125800        -0.853492         0.315736
 O         2.010212        -1.302371        -0.486292
 C         1.416875        -0.055433        -0.145673
 C        -0.115633        -0.017808        -0.058399
 C         2.178329         1.147326        -0.941164
 C         3.338300         0.760193        -0.037292
 O         4.667778         1.202086         0.010670
 C         2.390667         0.164316         1.088063
 H         4.013963        -2.710952         1.331679
 H         4.805838        -2.258968        -0.236909
 H         5.127836        -1.151033         1.119339
 H        -0.367324        -0.872938         0.573668
 H        -0.408503         0.937253         0.331206
 H        -0.706198        -0.146607        -0.994873
 H         2.417427         0.969942        -1.981045
 H         1.864822         2.160184        -0.710079
 H         4.760471         2.189452         0.064077
 H         2.043005         0.151833         2.148287
