19
Iteration:  4426
 C         4.231492        -1.702588         0.612520
 C         3.170826        -0.850833         0.368636
 O         2.056424        -1.324308        -0.356948
 C         1.405615        -0.016572        -0.156136
 C        -0.060836        -0.024142        -0.043519
 C         2.195836         0.880817        -1.051536
 C         3.374859         0.659690        -0.104482
 O         4.638504         1.261595         0.040090
 C         2.360802         0.299990         1.002587
 H         4.027544        -2.486725         1.248345
 H         4.746389        -1.961794        -0.290986
 H         4.778621        -1.018804         1.286629
 H        -0.502088        -0.787352         0.492156
 H        -0.233141         0.886133         0.558712
 H        -0.568201         0.245013        -0.985080
 H         2.443287         0.527153        -2.089307
 H         1.876014         1.931111        -1.081452
 H         4.548121         1.886894         0.750354
 H         2.353240         0.383650         2.098975
