19
Iteration:  2339charge 0 multiplicity 1
 C         4.291999        -1.729086         0.649506
 C         3.149467        -0.849939         0.307431
 O         2.047048        -1.297245        -0.451072
 C         1.367287         0.031355        -0.091706
 C        -0.110795         0.010525         0.015279
 C         2.191790         0.964875        -1.065983
 C         3.382927         0.586867        -0.049144
 O         4.681663         1.220125         0.026054
 C         2.417417         0.275273         1.051468
 H         3.871789        -2.526692         1.319063
 H         4.499208        -2.252139        -0.299469
 H         5.110776        -1.100027         1.040081
 H        -0.553515        -0.633969         0.732488
 H        -0.615011         0.997320         0.200872
 H        -0.455239        -0.229196        -0.943967
 H         2.182204         0.542620        -2.111450
 H         1.980700         2.028555        -1.131340
 H         4.425796         2.004128         0.567855
 H         2.349817         0.484921         2.081557
