19
Iteration:   105
 C         4.165707        -1.883927         0.599051
 C         3.196245        -0.799445         0.254545
 O         2.141733        -1.267830        -0.576489
 C         1.376831        -0.105967        -0.138302
 C        -0.052535         0.030485         0.059042
 C         2.251435         0.922167        -0.910971
 C         3.363492         0.711946        -0.051085
 O         4.503653         1.448169         0.162096
 C         2.443454         0.197126         1.007038
 H         3.362309        -2.525891         1.064620
 H         4.578543        -2.491784        -0.324014
 H         4.907818        -1.565623         1.386671
 H        -0.449539        -0.519414         0.967667
 H        -0.301950         1.155119         0.330098
 H        -0.647985        -0.169467        -0.900586
 H         2.390826         0.519404        -1.967608
 H         1.850837         1.929088        -1.069994
 H         5.241450         0.997868        -0.324530
 H         2.537016         0.491040         2.095306
