19
Iteration:   909
 C         4.302296        -1.690888         0.552927
 C         3.176601        -0.756402         0.312476
 O         2.122425        -1.215287        -0.485716
 C         1.410513        -0.018990        -0.112755
 C        -0.051753        -0.009088        -0.015326
 C         2.201033         0.914906        -1.015492
 C         3.303848         0.632688         0.055865
 O         4.589697         1.127563         0.052808
 C         2.320804         0.209325         1.096284
 H         3.813540        -2.674527         0.944204
 H         4.756585        -1.854948        -0.414137
 H         5.136425        -1.245264         1.085285
 H        -0.574503        -0.956186         0.111663
 H        -0.112910         0.781128         0.809915
 H        -0.503770         0.331510        -0.934688
 H         2.280701         0.588962        -2.064753
 H         1.895886         1.999750        -1.050369
 H         4.593988         2.067622         0.344192
 H         2.092677         0.544904         2.068878
