19
Iteration:  1814
 C         4.222653        -1.785612         0.585724
 C         3.107441        -0.854417         0.424579
 O         2.100366        -1.261004        -0.423321
 C         1.388314         0.036692        -0.152569
 C        -0.081774         0.004984        -0.104263
 C         2.195205         0.893620        -1.070344
 C         3.376731         0.699291         0.032015
 O         4.657128         1.238212        -0.010972
 C         2.431437         0.264262         1.182931
 H         4.429290        -2.802695         1.133719
 H         4.275871        -2.140720        -0.468326
 H         5.162633        -1.269810         0.827358
 H        -0.644086        -0.715589         0.565434
 H        -0.411107         0.990659         0.181237
 H        -0.635715        -0.268807        -0.949887
 H         2.153315         0.404492        -2.083133
 H         1.810877         1.887181        -1.018149
 H         4.632497         2.196696         0.283632
 H         2.162911         0.541745         2.163161
