19
Iteration:   950
 C         4.336689        -1.765914         0.562523
 C         3.216629        -0.796618         0.194385
 O         1.911963        -1.284638        -0.351390
 C         1.355862         0.008094        -0.107831
 C        -0.066433        -0.110590        -0.125202
 C         2.214779         1.084611        -0.887705
 C         3.407649         0.591378        -0.095988
 O         4.668166         1.250318         0.073090
 C         2.364186         0.222540         1.053703
 H         3.948409        -2.410459         1.386713
 H         4.701180        -2.347586        -0.324348
 H         5.047687        -1.134516         1.065532
 H        -0.642817        -0.918805         0.471289
 H        -0.453376         0.974649         0.009588
 H        -0.395352        -0.501087        -1.157161
 H         2.173709         1.066672        -1.989012
 H         2.123730         2.092582        -0.328563
 H         4.523457         2.128273         0.420794
 H         2.468882         0.358116         2.228817
