19
Iteration:  2051
 C         4.161735        -1.810981         0.759328
 C         3.221220        -0.833660         0.171147
 O         2.032007        -1.290863        -0.476641
 C         1.349675         0.024524        -0.160599
 C        -0.154298        -0.073481         0.050918
 C         2.226696         1.031170        -0.951601
 C         3.356204         0.643479        -0.118150
 O         4.697240         1.260438         0.019724
 C         2.485132         0.262474         1.012842
 H         3.589322        -2.399948         1.432503
 H         4.827084        -2.359349         0.092312
 H         4.710085        -1.241702         1.564721
 H        -0.344012        -0.990842         0.696774
 H        -0.542069         0.839950         0.380002
 H        -0.481894        -0.298240        -0.921116
 H         2.424187         0.811309        -1.996874
 H         1.788556         2.014466        -0.621153
 H         4.656862         2.241762        -0.051665
 H         2.680968         0.509129         2.017677
