19
Iteration:  3155charge 0 multiplicity 1
 C         4.392843        -1.780721         0.679599
 C         3.190936        -0.803028         0.411000
 O         2.010085        -1.322374        -0.414937
 C         1.352576         0.008995        -0.127332
 C        -0.136279         0.073004        -0.063055
 C         2.185405         0.945772        -1.046442
 C         3.364524         0.613898        -0.154321
 O         4.588672         1.202009         0.028009
 C         2.432361         0.258262         1.039436
 H         4.015673        -2.426222         1.523279
 H         4.723935        -2.376038        -0.206025
 H         5.135621        -1.116737         1.027284
 H        -0.616375        -0.688830         0.586958
 H        -0.388730         1.185331         0.225980
 H        -0.372612        -0.383271        -1.043333
 H         2.336180         0.806896        -2.198024
 H         1.906436         2.027662        -0.816151
 H         4.532261         1.938819         0.698681
 H         2.487410         0.720800         1.981486
