19
Iteration:  4905charge 0 multiplicity 1
 C         4.384672        -1.744175         0.578280
 C         3.152895        -0.895178         0.310682
 O         2.016388        -1.315206        -0.399193
 C         1.404908        -0.006889        -0.115158
 C        -0.106754         0.076761        -0.052322
 C         2.192866         1.009288        -1.057926
 C         3.354410         0.652332        -0.064415
 O         4.584372         1.283877         0.159361
 C         2.367071         0.216565         1.077775
 H         4.099763        -2.770314         0.803184
 H         4.868392        -1.966598        -0.460432
 H         5.162573        -1.425516         1.394847
 H        -0.482880        -0.317027         0.942067
 H        -0.409963         1.138473        -0.096243
 H        -0.690425        -0.545899        -0.711285
 H         2.217286         0.467302        -2.068625
 H         1.930089         2.114090        -1.171193
 H         5.136735         1.193325        -0.615606
 H         2.281284         0.476382         2.166920
