19
Iteration:  4016
 C         4.251238        -1.737432         0.794053
 C         3.193720        -0.829147         0.315739
 O         2.029837        -1.296388        -0.405511
 C         1.392970         0.000055        -0.064629
 C        -0.050681        -0.085708        -0.082269
 C         2.152332         1.114694        -1.036033
 C         3.374177         0.694227        -0.103763
 O         4.664008         1.166340        -0.090904
 C         2.388313         0.204836         1.046969
 H         3.938884        -2.483955         1.508013
 H         4.923885        -2.279066         0.127852
 H         5.126208        -1.117023         1.244270
 H        -0.276864        -1.055859         0.365139
 H        -0.730028         0.726634         0.349925
 H        -0.392029        -0.148991        -1.111234
 H         2.188107         1.106746        -2.171511
 H         1.621427         2.118996        -0.791359
 H         4.537489         2.010373         0.424695
 H         2.270175         0.423954         2.009072
