19
Iteration:  3764charge 0 multiplicity 1
 C         4.249445        -1.732103         0.686257
 C         3.184496        -0.821744         0.236293
 O         1.978307        -1.338778        -0.330448
 C         1.397723         0.077066        -0.034787
 C        -0.120962        -0.037497        -0.026192
 C         2.253641         0.938166        -1.072031
 C         3.460733         0.572346        -0.115963
 O         4.628907         1.350446         0.015252
 C         2.411180         0.213400         0.972596
 H         4.073589        -2.375344         1.578711
 H         4.579617        -2.335101        -0.188349
 H         5.076055        -1.091970         1.068536
 H        -0.774265        -0.495199         0.675744
 H        -0.470911         0.999201        -0.225441
 H        -0.370024        -0.696410        -0.954801
 H         2.159663         0.642886        -2.119147
 H         2.026195         2.026888        -1.005147
 H         4.356683         1.871844         0.785422
 H         2.326797         0.315450         2.130717
