19
Iteration:  4268charge 0 multiplicity 1
 C         4.242853        -1.790223         0.611905
 C         3.147623        -0.820385         0.367304
 O         2.111869        -1.274157        -0.386858
 C         1.459809        -0.071144        -0.137031
 C        -0.158969        -0.020227        -0.046584
 C         2.233286         0.928881        -1.084223
 C         3.346825         0.633924        -0.051388
 O         4.651148         1.306785        -0.045364
 C         2.379205         0.330550         1.087098
 H         3.831659        -2.786091         0.991309
 H         5.101768        -1.768110        -0.119928
 H         4.760587        -1.370938         1.537891
 H        -0.678354        -0.577324         0.860985
 H        -0.535385         1.001915         0.311668
 H        -0.490070        -0.315332        -1.032213
 H         2.156836         0.442516        -2.057306
 H         1.810236         1.960902        -0.995566
 H         4.857851         1.647087         0.813524
 H         1.907066         0.512482         2.091055
