19
Iteration:  2607charge 0 multiplicity 1
 C         4.275134        -1.729366         0.653963
 C         3.182358        -0.861204         0.281433
 O         2.045575        -1.267295        -0.430276
 C         1.398557         0.015458        -0.012429
 C        -0.147651         0.023673        -0.057177
 C         2.222170         1.017637        -1.065529
 C         3.379331         0.597051        -0.161626
 O         4.622584         1.178493         0.079849
 C         2.459141         0.214897         1.048250
 H         3.958951        -2.205771         1.640605
 H         4.476601        -2.411705        -0.211254
 H         5.098518        -1.143415         0.974990
 H        -0.576262        -0.889840         0.518103
 H        -0.477264         0.954060         0.422300
 H        -0.656244        -0.266373        -1.002721
 H         2.118506         0.776630        -2.156227
 H         1.910670         2.068423        -0.763152
 H         4.475618         2.079452         0.321264
 H         2.487844         0.679208         2.076449
