19
Iteration:  2384charge 0 multiplicity 1
 C         4.120623        -1.891884         0.729604
 C         3.165347        -0.826050         0.267014
 O         2.093275        -1.370475        -0.455489
 C         1.392819         0.066511        -0.046358
 C        -0.077064        -0.033051        -0.044407
 C         2.195520         1.024081        -0.925859
 C         3.428697         0.732627        -0.109876
 O         4.639763         1.308883        -0.029767
 C         2.489800         0.235902         1.047047
 H         3.776561        -2.446423         1.594723
 H         4.190029        -2.608356        -0.093905
 H         5.123371        -1.384520         0.897992
 H        -0.396157        -0.698677         0.664399
 H        -0.560372         0.928601         0.195134
 H        -0.447191        -0.350711        -1.024802
 H         2.238039         0.860417        -2.054388
 H         1.734771         1.999356        -0.769414
 H         4.619181         2.244471        -0.290494
 H         2.143984         0.307201         2.097274
