19
Iteration:   865
 C         4.257033        -1.798319         0.676966
 C         3.143624        -0.906472         0.226019
 O         1.964857        -1.253197        -0.472169
 C         1.453264         0.013419        -0.073074
 C        -0.109050        -0.011258        -0.075343
 C         2.180652         1.002799        -0.921868
 C         3.432874         0.624289        -0.151040
 O         4.588053         1.355853         0.073270
 C         2.542443         0.122776         1.067760
 H         3.868793        -2.792710         1.115996
 H         5.069515        -2.079863         0.009013
 H         4.821250        -1.196414         1.385692
 H        -0.397871        -1.012847         0.304289
 H        -0.547187         0.841913         0.524341
 H        -0.528015         0.041553        -1.077205
 H         2.160831         0.890991        -2.006434
 H         1.809599         2.047340        -0.815604
 H         4.325132         2.285318         0.270604
 H         2.493765         0.327859         2.133904
