19
Iteration:  2256
 C         4.136643        -1.826241         0.714267
 C         3.191391        -0.758615         0.237265
 O         2.103748        -1.358773        -0.426056
 C         1.360138         0.056753        -0.035344
 C        -0.055039        -0.015081        -0.116793
 C         2.242811         1.032727        -0.941261
 C         3.370432         0.680431        -0.085149
 O         4.660164         1.245734        -0.137685
 C         2.371142         0.202931         1.183751
 H         3.649045        -2.603586         1.210991
 H         4.742770        -2.133388        -0.127619
 H         4.879176        -1.287370         1.385402
 H        -0.273741        -0.835862         0.650037
 H        -0.398065         0.930409         0.294093
 H        -0.685977        -0.420195        -0.999231
 H         2.417695         0.691003        -1.929932
 H         1.930883         2.065974        -0.843169
 H         4.595285         2.212314         0.091655
 H         2.245501         0.276908         2.258574
