19
Iteration:   530charge 0 multiplicity 1
 C         4.237363        -1.755327         0.600480
 C         3.199236        -0.841242         0.295887
 O         1.977045        -1.270855        -0.499242
 C         1.381539         0.059836        -0.144966
 C        -0.168359        -0.095335        -0.092045
 C         2.263915         1.000803        -0.940770
 C         3.376530         0.672276        -0.000685
 O         4.650493         1.266824        -0.002375
 C         2.469618         0.185241         1.151825
 H         3.871819        -2.669305         1.205128
 H         4.826859        -2.109394        -0.248483
 H         5.013979        -1.349158         1.234768
 H        -0.390921        -0.975021         0.568987
 H        -0.619490         0.697764         0.620259
 H        -0.601977        -0.182226        -1.080277
 H         2.618000         0.796883        -2.001101
 H         1.941566         2.042504        -0.862940
 H         4.345910         2.113395         0.422538
 H         2.565606         0.547984         2.182633
