19
Iteration:   382charge 0 multiplicity 1
 C         4.338923        -1.680534         0.536790
 C         3.133668        -0.866272         0.338888
 O         1.960821        -1.307864        -0.487338
 C         1.406491         0.006127        -0.059822
 C        -0.079513         0.020718        -0.123623
 C         2.263620         0.951202        -0.894634
 C         3.375914         0.590778        -0.044876
 O         4.575397         1.246171         0.040391
 C         2.390958         0.231350         1.127430
 H         4.262660        -2.538410         1.049317
 H         4.469354        -2.127126        -0.450891
 H         5.233252        -1.131092         0.844237
 H        -0.378602        -0.803864         0.536722
 H        -0.529738         0.951175         0.170549
 H        -0.487966        -0.177549        -1.197359
 H         2.435370         0.590365        -1.885866
 H         2.295576         2.076647        -0.790315
 H         4.490708         2.068430         0.528595
 H         2.393555         0.597010         2.244494
