19
Iteration:  4681
 C         4.210163        -1.811315         0.664963
 C         3.103940        -0.842770         0.313922
 O         2.014149        -1.376311        -0.410913
 C         1.371784         0.029522        -0.095100
 C        -0.079930        -0.128939         0.033844
 C         2.253281         1.086855        -1.137499
 C         3.315065         0.748673        -0.138259
 O         4.631549         1.357835         0.115240
 C         2.554787         0.267503         1.062922
 H         3.519808        -2.703788         0.994769
 H         4.726368        -2.157637        -0.192967
 H         4.817090        -1.553349         1.542387
 H        -0.388295        -0.665192         0.982602
 H        -0.619617         0.774071        -0.199761
 H        -0.352260        -0.738494        -0.769866
 H         2.075451         0.845907        -2.181485
 H         2.027093         2.168833        -1.000499
 H         5.319307         1.088275        -0.553250
 H         2.524593         0.615098         2.115914
