19
Iteration:  4112charge 0 multiplicity 1
 C         4.320650        -1.880871         0.729475
 C         3.219967        -0.876033         0.331031
 O         2.038240        -1.314333        -0.353316
 C         1.397274        -0.021019        -0.097918
 C        -0.099498        -0.031052        -0.110934
 C         2.056258         1.054092        -1.017278
 C         3.332348         0.700875        -0.182426
 O         4.667460         1.278517         0.046137
 C         2.451392         0.271263         1.002365
 H         3.990650        -2.702573         1.320477
 H         4.824210        -2.396731        -0.069086
 H         5.162453        -1.302926         1.226724
 H        -0.580166        -0.445168         0.744725
 H        -0.466874         1.001577        -0.279397
 H        -0.598456        -0.507109        -1.005030
 H         2.209788         0.826188        -2.043422
 H         1.764989         2.075157        -0.842379
 H         4.581309         2.186592         0.468188
 H         2.413323         0.790176         2.001185
