19
Iteration:   526charge 0 multiplicity 1
 C         4.264271        -1.796962         0.632301
 C         3.210092        -0.853938         0.278280
 O         2.002464        -1.235885        -0.477895
 C         1.356678         0.036731        -0.161045
 C        -0.179757        -0.102606        -0.082794
 C         2.265171         1.052161        -0.938629
 C         3.360940         0.654850        -0.044452
 O         4.639752         1.258143         0.002437
 C         2.479398         0.190928         1.138152
 H         3.886189        -2.637382         1.177486
 H         4.806314        -2.180121        -0.208958
 H         4.944412        -1.292029         1.321886
 H        -0.393949        -0.971582         0.573952
 H        -0.547603         0.664748         0.586561
 H        -0.632486        -0.129232        -1.108008
 H         2.540656         0.822061        -1.969767
 H         1.909669         2.096526        -0.699657
 H         4.368146         2.094141         0.391438
 H         2.493347         0.566300         2.132284
