19
Iteration:  3948charge 0 multiplicity 1
 C         4.277445        -1.860978         0.667940
 C         3.247970        -0.833207         0.298167
 O         2.054303        -1.309164        -0.319280
 C         1.403733        -0.032060        -0.156820
 C        -0.087715        -0.001285        -0.057951
 C         2.166397         0.973777        -1.047224
 C         3.387775         0.643131        -0.144835
 O         4.592309         1.287854         0.110518
 C         2.420879         0.336237         1.001528
 H         3.891650        -2.554443         1.439118
 H         4.475756        -2.530481        -0.177635
 H         5.219036        -1.304875         0.960461
 H        -0.415123        -0.478881         0.840821
 H        -0.463306         0.958853        -0.346482
 H        -0.625465        -0.678579        -0.855944
 H         2.012776         0.924891        -2.163324
 H         1.703951         1.989731        -0.778521
 H         4.460913         2.216296        -0.017178
 H         2.333430         0.652767         2.172728
