19
Iteration:  1793charge 0 multiplicity 1
 C         4.350811        -1.728470         0.523571
 C         3.210615        -0.787932         0.342125
 O         1.961917        -1.345589        -0.328863
 C         1.370812        -0.006955        -0.070005
 C        -0.107153         0.006377        -0.144194
 C         2.272849         1.031647        -0.990428
 C         3.332391         0.686626        -0.041209
 O         4.641108         1.158370         0.032235
 C         2.357618         0.240076         1.092934
 H         4.236971        -2.360658         1.498954
 H         4.431755        -2.356239        -0.359979
 H         5.217163        -1.192495         0.864429
 H        -0.699164        -0.648948         0.554202
 H        -0.453350         1.017145        -0.021553
 H        -0.428150        -0.404370        -1.092191
 H         2.431316         0.668538        -2.053150
 H         1.762186         1.964107        -0.943955
 H         4.814120         2.104498         0.130128
 H         2.312750         0.466289         2.080777
