19
Iteration:   453charge 0 multiplicity 1
 C         4.306444        -1.819873         0.643501
 C         3.136475        -0.887049         0.330425
 O         2.014121        -1.251200        -0.574249
 C         1.409208         0.150508        -0.144413
 C        -0.116231        -0.081076        -0.001764
 C         2.266635         1.056948        -0.982804
 C         3.421577         0.654630        -0.018296
 O         4.615401         1.321295         0.006421
 C         2.365107         0.111055         1.110534
 H         3.964765        -2.800629         1.332566
 H         4.720683        -2.408733        -0.216050
 H         5.047690        -1.313789         1.296993
 H        -0.082505        -0.775035         0.894956
 H        -0.761726         0.846111         0.317231
 H        -0.620559        -0.487973        -0.872801
 H         2.321702         0.496410        -1.967905
 H         2.062891         2.115444        -0.933507
 H         4.377297         2.189635         0.342273
 H         2.159615         0.365227         2.094903
