19
Iteration:  3082
 C         4.197829        -1.905670         0.835837
 C         3.230649        -0.780133         0.349690
 O         2.105032        -1.233584        -0.529701
 C         1.500064         0.006077        -0.138135
 C        -0.097013        -0.035943        -0.049427
 C         2.185581         1.066203        -0.998269
 C         3.370450         0.676776        -0.065257
 O         4.576592         1.212122        -0.148066
 C         2.383422         0.238501         1.130836
 H         3.503505        -2.686766         1.224959
 H         4.677620        -2.406580        -0.044446
 H         4.843356        -1.557535         1.599311
 H        -0.163136        -0.844900         0.630935
 H        -0.431089         0.862667         0.485717
 H        -0.673278        -0.437649        -0.820312
 H         2.119611         0.871413        -2.046847
 H         1.906319         2.097465        -0.764090
 H         4.499001         2.190263         0.090504
 H         2.298167         0.630343         2.151705
