19
Iteration:   401charge 0 multiplicity 1
 C         4.402216        -1.828002         0.496335
 C         3.165634        -0.801746         0.280702
 O         2.037287        -1.280992        -0.346141
 C         1.378600         0.000568        -0.074235
 C        -0.171830         0.039912        -0.123764
 C         2.111454         0.968830        -1.080412
 C         3.342149         0.701154         0.025470
 O         4.670381         1.231371         0.141641
 C         2.456418         0.187970         1.086862
 H         4.084446        -2.648778         1.195213
 H         4.695351        -2.280700        -0.539546
 H         5.186827        -1.143917         0.836100
 H        -0.646512        -0.751552         0.449175
 H        -0.500359         1.123516        -0.060352
 H        -0.434610        -0.162304        -1.120865
 H         2.220059         0.549506        -2.135776
 H         1.610860         1.935542        -0.956996
 H         4.572088         2.048638         0.620636
 H         2.407358         0.461483         2.121160
