19
Iteration:  3263charge 0 multiplicity 1
 C         4.119428        -1.844518         0.808602
 C         3.193567        -0.792619         0.279252
 O         2.047655        -1.306702        -0.481803
 C         1.410151        -0.010449        -0.083950
 C        -0.064171        -0.031026         0.003265
 C         2.277094         0.946856        -1.063307
 C         3.380865         0.712787        -0.015927
 O         4.633833         1.316841        -0.102798
 C         2.429989         0.264297         1.039683
 H         3.674180        -2.752322         1.349186
 H         4.591934        -2.308377        -0.105380
 H         4.872320        -1.556567         1.502557
 H        -0.211382        -0.939808         0.624967
 H        -0.594450         0.915609         0.459823
 H        -0.447403        -0.198246        -1.085804
 H         2.357915         0.835148        -2.146760
 H         1.786629         1.931415        -1.028517
 H         4.431828         2.038141         0.510690
 H         2.407344         0.496169         2.111507
