19
Iteration:  2615charge 0 multiplicity 1
 C         4.313464        -1.738437         0.623239
 C         3.181566        -0.758772         0.339019
 O         2.050879        -1.257380        -0.421644
 C         1.372488        -0.011254        -0.129674
 C        -0.137535         0.023945        -0.037315
 C         2.209699         0.979193        -1.025264
 C         3.381576         0.570254        -0.138997
 O         4.590591         1.159379         0.047486
 C         2.424915         0.219380         1.107460
 H         4.008781        -2.403076         1.447500
 H         4.612197        -2.349680        -0.253783
 H         5.131136        -1.090680         0.899901
 H        -0.505206        -0.654747         0.692422
 H        -0.241937         1.003540         0.361244
 H        -0.662105        -0.040635        -1.095552
 H         2.277968         0.673094        -2.038695
 H         2.167385         2.019595        -0.919217
 H         4.476029         2.053964         0.364483
 H         2.248826         0.501855         2.124068
