19
Iteration:   698charge 0 multiplicity 1
 C         4.233242        -1.803762         0.646637
 C         3.278898        -0.803062         0.263919
 O         2.000484        -1.261697        -0.482270
 C         1.301359         0.006016        -0.074458
 C        -0.181438        -0.029704        -0.035194
 C         2.239096         0.980040        -0.956025
 C         3.437757         0.647218        -0.103352
 O         4.663802         1.356111         0.032078
 C         2.444771         0.126951         1.116091
 H         3.703170        -2.621781         1.010466
 H         4.988172        -2.093868        -0.146566
 H         4.859191        -1.453628         1.505165
 H        -0.422724        -1.068546         0.086182
 H        -0.497514         0.557656         0.770524
 H        -0.583850         0.183026        -1.044718
 H         2.256383         0.637009        -1.958523
 H         1.928259         2.022298        -1.063767
 H         4.410601         2.318443         0.031741
 H         2.419702         0.092219         2.178983
