19
Iteration:  2968charge 0 multiplicity 1
 C         4.303112        -1.816885         0.604844
 C         3.138904        -0.878658         0.300423
 O         1.952127        -1.346658        -0.377254
 C         1.385362         0.024781        -0.131996
 C        -0.104592         0.016894        -0.081262
 C         2.197514         0.977204        -1.103718
 C         3.356266         0.650010        -0.024862
 O         4.636562         1.323115         0.086358
 C         2.529134         0.281992         1.103550
 H         3.818352        -2.446203         1.352207
 H         4.613074        -2.503317        -0.180460
 H         5.246296        -1.322969         1.061352
 H        -0.543746        -0.865335         0.465050
 H        -0.518768         0.894655         0.433324
 H        -0.424942        -0.190417        -1.040616
 H         2.265541         0.326074        -2.069544
 H         1.946627         2.055885        -1.237722
 H         4.562608         2.317664         0.154246
 H         2.676499         0.610496         2.174758
