19
Iteration:  2758
 C         4.230882        -1.823017         0.813504
 C         3.213519        -0.834802         0.220501
 O         2.075992        -1.251075        -0.547688
 C         1.404910         0.065367        -0.074063
 C        -0.092881        -0.059374        -0.017424
 C         2.087905         1.065594        -0.991514
 C         3.383981         0.597711        -0.032861
 O         4.686835         1.222240         0.010599
 C         2.406394         0.225640         0.983651
 H         3.659451        -2.296283         1.648333
 H         4.555686        -2.569053         0.055397
 H         5.117517        -1.242374         1.000743
 H        -0.300235        -0.812338         0.774203
 H        -0.499291         0.778353         0.467531
 H        -0.672475        -0.239320        -1.044602
 H         2.276928         0.814207        -2.053709
 H         1.813702         2.122951        -0.778648
 H         4.522882         2.155808         0.069523
 H         2.440762         0.465704         2.083649
