19
Iteration:  1426charge 0 multiplicity 1
 C         4.294202        -1.786857         0.525150
 C         3.185254        -0.773532         0.274462
 O         2.013763        -1.263650        -0.372832
 C         1.404099        -0.047437        -0.019803
 C        -0.132129        -0.015565        -0.161180
 C         2.205622         1.047057        -0.998665
 C         3.340341         0.654672        -0.040483
 O         4.615015         1.134930         0.088560
 C         2.460079         0.252257         1.132724
 H         3.966792        -2.479198         1.299877
 H         4.767515        -2.105881        -0.453262
 H         5.106683        -1.183235         0.925239
 H        -0.491045        -0.559899         0.753781
 H        -0.711614         0.940724        -0.064456
 H        -0.326106        -0.583068        -1.187441
 H         2.387829         0.723585        -2.064273
 H         1.950928         2.133648        -1.026855
 H         4.483609         2.099999         0.118447
 H         2.445346         0.662613         2.167481
