19
Iteration:  3352charge 0 multiplicity 1
 C         4.377636        -1.761715         0.647097
 C         3.161275        -0.858333         0.370612
 O         2.022530        -1.310212        -0.432766
 C         1.398558         0.058451        -0.050429
 C        -0.159863        -0.028009        -0.140357
 C         2.245138         1.028066        -1.037135
 C         3.314977         0.572432        -0.002609
 O         4.691275         1.180429         0.017405
 C         2.360228         0.318361         1.095773
 H         4.013437        -2.495375         1.423777
 H         4.631404        -2.196601        -0.345246
 H         5.205743        -1.165704         0.997310
 H        -0.578228        -0.519707         0.763425
 H        -0.568199         1.088844         0.011718
 H        -0.524190        -0.373795        -1.106191
 H         2.397153         0.495541        -1.991233
 H         1.864750         2.051967        -1.017580
 H         4.404804         2.034968        -0.301958
 H         2.092827         0.762029         2.080691
