19
Iteration:  4139
 C         4.177984        -1.714218         0.732276
 C         3.211698        -0.804221         0.247244
 O         2.028004        -1.214798        -0.440460
 C         1.403025         0.068480        -0.075050
 C        -0.093833        -0.184217        -0.097667
 C         2.197777         1.032502        -0.962820
 C         3.369580         0.626983        -0.094298
 O         4.633311         1.203561        -0.035469
 C         2.477820         0.259979         1.093120
 H         3.856250        -2.323859         1.640147
 H         4.379131        -2.554414         0.018041
 H         5.119212        -1.294952         1.004262
 H        -0.476181        -0.670455         0.852240
 H        -0.683861         0.701841        -0.343274
 H        -0.442314        -0.893065        -0.826996
 H         2.398500         0.701837        -2.019569
 H         2.052832         2.137244        -0.818345
 H         4.547828         2.150097         0.269250
 H         2.471964         0.370044         2.178786
