19
Iteration:  1623
 C         4.344303        -1.633550         0.652891
 C         3.144848        -0.845489         0.375135
 O         2.049670        -1.316923        -0.405414
 C         1.372354         0.049703        -0.052695
 C        -0.171652         0.036302        -0.163456
 C         2.253996         1.034757        -0.986412
 C         3.349958         0.602501        -0.052062
 O         4.620710         1.132370        -0.075319
 C         2.399752         0.160676         1.128574
 H         4.249384        -2.517695         1.203341
 H         4.509053        -2.160849        -0.351131
 H         5.115350        -0.854304         0.866353
 H        -0.472525        -0.564295         0.645291
 H        -0.498442         1.039505        -0.006399
 H        -0.640634        -0.380824        -1.031581
 H         2.512161         0.820914        -1.979768
 H         1.901068         2.029527        -0.716737
 H         4.702772         1.801985         0.600094
 H         2.302951         0.436166         2.096253
