19
Iteration:  2296charge 0 multiplicity 1
 C         4.322406        -1.699392         0.626132
 C         3.138775        -0.830702         0.343455
 O         2.012170        -1.371202        -0.391882
 C         1.420662         0.041351        -0.119755
 C        -0.117345         0.012385        -0.073716
 C         2.189084         1.011819        -1.000775
 C         3.394065         0.599855        -0.110524
 O         4.640561         1.147638         0.013748
 C         2.373750         0.278593         1.091021
 H         4.076145        -2.699586         1.051214
 H         4.997567        -1.916553        -0.224159
 H         4.892002        -1.152829         1.397044
 H        -0.473050        -0.637779         0.635139
 H        -0.456617         1.033750         0.284766
 H        -0.479436        -0.073090        -1.101096
 H         2.047481         0.853153        -2.138051
 H         2.067231         2.074877        -0.741111
 H         4.557347         2.091036         0.172841
 H         2.400900         0.589010         2.101932
