19
Iteration:   682
 C         4.140755        -1.800919         0.699545
 C         3.219401        -0.803966         0.145356
 O         2.018311        -1.268433        -0.458977
 C         1.447176         0.011479        -0.073429
 C        -0.126949        -0.170662        -0.026752
 C         2.251019         1.103346        -0.966502
 C         3.371640         0.690787        -0.059295
 O         4.591721         1.270860         0.038290
 C         2.531896         0.158307         1.073292
 H         3.422035        -2.658434         1.013510
 H         4.848898        -2.246274         0.040578
 H         4.697430        -1.415429         1.536944
 H        -0.280668        -1.245929         0.228462
 H        -0.714785         0.605162         0.649349
 H        -0.683858         0.183830        -0.923492
 H         2.411376         1.055701        -2.111887
 H         1.929958         2.132051        -0.693289
 H         4.558050         2.225422        -0.159423
 H         2.765934         0.626188         2.099762
