19
Iteration:  2205
 C         4.193283        -1.778906         0.730952
 C         3.247739        -0.793884         0.304116
 O         2.051482        -1.314983        -0.466957
 C         1.349843         0.117413        -0.115868
 C        -0.095954        -0.049168         0.035984
 C         2.238471         1.012994        -1.055647
 C         3.376963         0.629727        -0.122786
 O         4.594576         1.219715         0.017249
 C         2.474456         0.230621         1.018554
 H         3.660648        -2.461602         1.514452
 H         4.516572        -2.495483        -0.080862
 H         5.158168        -1.360236         1.091111
 H        -0.467009        -0.908127         0.764634
 H        -0.644647         0.864556         0.266237
 H        -0.370739        -0.324842        -0.963715
 H         2.190712         0.756018        -2.159684
 H         2.089445         2.137009        -0.869537
 H         4.487910         2.131191         0.418003
 H         2.358912         0.324611         2.123701
