19
Iteration:   434charge 0 multiplicity 1
 C         4.226352        -1.774237         0.558748
 C         3.134571        -0.887976         0.290507
 O         2.035013        -1.280024        -0.444117
 C         1.442591        -0.090068        -0.132263
 C        -0.052646        -0.041383        -0.016389
 C         2.220107         1.015254        -0.999863
 C         3.381513         0.648897        -0.051494
 O         4.597532         1.274925         0.125850
 C         2.410061         0.304410         1.040120
 H         4.064285        -2.719050         1.135996
 H         4.531468        -2.238330        -0.467040
 H         5.131144        -1.314443         1.001449
 H        -0.531927        -0.592177         0.781990
 H        -0.437213         0.999148         0.097589
 H        -0.377218        -0.387649        -0.961411
 H         2.360939         1.008205        -2.114600
 H         1.899124         2.005193        -0.648748
 H         4.394829         2.208598         0.340637
 H         2.424189         0.572843         2.114439
