19
Iteration:  1748charge 0 multiplicity 1
 C         4.344054        -1.810848         0.747193
 C         3.192267        -0.875474         0.274241
 O         2.008760        -1.250051        -0.469833
 C         1.366419         0.008856        -0.070758
 C        -0.122759        -0.019886        -0.067392
 C         2.156657         1.050022        -1.015154
 C         3.321805         0.701556        -0.049896
 O         4.707079         1.204507        -0.036052
 C         2.387967         0.203936         1.066606
 H         4.150426        -2.519036         1.603247
 H         4.508120        -2.258531        -0.231090
 H         5.205650        -1.238533         1.139436
 H        -0.453095        -0.640259         0.816743
 H        -0.436477         1.015441        -0.000007
 H        -0.386106        -0.527891        -0.961457
 H         2.174969         0.789916        -2.107487
 H         1.861786         2.097688        -0.946544
 H         4.718436         2.018660         0.489374
 H         2.177648         0.454685         2.126947
