19
Iteration:  2918charge 0 multiplicity 1
 C         4.164420        -1.854330         0.858436
 C         3.143092        -0.853375         0.273015
 O         2.064115        -1.289497        -0.481717
 C         1.415477         0.013865        -0.213523
 C        -0.083792        -0.069932        -0.006478
 C         2.186294         1.088093        -0.951143
 C         3.375954         0.803273        -0.047869
 O         4.669517         1.282913        -0.143403
 C         2.439223         0.140696         1.069769
 H         3.818063        -2.791918         1.338479
 H         4.680639        -2.218523        -0.070248
 H         4.883323        -1.363873         1.468378
 H        -0.247825        -0.940550         0.598283
 H        -0.538374         0.879135         0.491167
 H        -0.652622        -0.473761        -0.927704
 H         2.451877         1.055581        -1.955926
 H         1.695526         2.045956        -0.745315
 H         5.019583         2.033719         0.300181
 H         2.197182         0.227242         2.164304
