19
Iteration:  4218charge 0 multiplicity 1
 C         4.318099        -1.762381         0.691262
 C         3.174356        -0.840100         0.231978
 O         1.950111        -1.355744        -0.337257
 C         1.432344        -0.008039        -0.111116
 C        -0.150037         0.049154        -0.125823
 C         2.178804         0.881879        -1.018326
 C         3.403060         0.642643        -0.121227
 O         4.654145         1.332882         0.078219
 C         2.456130         0.275454         1.001531
 H         4.005495        -2.517421         1.424555
 H         4.958555        -2.095377        -0.147558
 H         4.947334        -1.090737         1.298172
 H        -0.589019        -0.810883         0.360333
 H        -0.497436         0.771432         0.553864
 H        -0.605296         0.107270        -1.142110
 H         2.172473         0.468669        -2.079775
 H         1.771452         1.885069        -0.944214
 H         4.484939         2.198585         0.560752
 H         2.661863         0.148457         2.137332
