19
Iteration:   609charge 0 multiplicity 1
 C         4.337772        -1.732225         0.603993
 C         3.152613        -0.835668         0.250696
 O         1.908941        -1.275579        -0.468097
 C         1.445403         0.024959        -0.095099
 C        -0.044304         0.007589        -0.077491
 C         2.152066         0.998640        -0.974810
 C         3.351960         0.674735        -0.051259
 O         4.676750         1.266178         0.105876
 C         2.411690         0.055871         1.096711
 H         4.151140        -2.413323         1.375829
 H         4.683079        -2.322270        -0.316741
 H         5.232120        -1.039615         0.836860
 H        -0.467883        -0.422977         0.782450
 H        -0.427171         0.947682        -0.377810
 H        -0.390561        -0.669728        -0.886578
 H         2.122859         0.780485        -2.058673
 H         1.923886         2.048267        -0.849880
 H         4.414987         2.141924         0.508316
 H         2.428808         0.333711         2.209040
