19
Iteration:  1349charge 0 multiplicity 1
 C         4.185490        -1.855698         0.724700
 C         3.134138        -0.836648         0.254922
 O         2.129642        -1.314529        -0.553716
 C         1.395422         0.098652        -0.129843
 C        -0.069344        -0.008116         0.033076
 C         2.217757         1.011412        -0.997401
 C         3.396379         0.699263        -0.048204
 O         4.617674         1.375791        -0.028954
 C         2.371004         0.113424         1.085235
 H         3.848525        -2.563596         1.441464
 H         4.458388        -2.394345        -0.199476
 H         4.988268        -1.389918         1.203793
 H        -0.345883        -0.874918         0.659624
 H        -0.301631         0.880228         0.558480
 H        -0.770486        -0.186350        -0.810306
 H         2.275518         0.583545        -2.048682
 H         1.924534         2.029874        -1.100601
 H         4.700070         1.665017         0.876903
 H         2.429888         0.174689         2.118207
