19
Iteration:  4675charge 0 multiplicity 1
 C         4.175734        -1.869403         0.706767
 C         3.153436        -0.848958         0.286302
 O         2.055062        -1.336237        -0.403145
 C         1.332066         0.078969        -0.090606
 C        -0.148800        -0.166721         0.030954
 C         2.231942         1.088378        -1.078784
 C         3.320789         0.762430        -0.144539
 O         4.665326         1.371151         0.083418
 C         2.590988         0.280587         1.055281
 H         3.543459        -2.662276         0.897575
 H         4.833821        -2.255689        -0.179087
 H         4.741674        -1.478101         1.544938
 H        -0.427966        -0.733095         0.866682
 H        -0.649439         0.828215        -0.128542
 H        -0.204422        -0.841121        -0.978419
 H         2.113959         0.749684        -2.172921
 H         1.915337         2.132755        -1.016603
 H         5.137952         0.855643        -0.560153
 H         2.328663         0.519179         2.124272
