19
Iteration:  3852
 C         4.319276        -1.764850         0.826961
 C         3.219259        -0.845652         0.308860
 O         1.936014        -1.249921        -0.441705
 C         1.437344         0.055512        -0.051508
 C        -0.108556        -0.086919        -0.065122
 C         2.112793         0.974020        -1.013229
 C         3.378665         0.745609        -0.134673
 O         4.685726         1.212663        -0.061576
 C         2.445381         0.167432         1.076630
 H         3.754514        -2.573422         1.329639
 H         4.958429        -2.180305         0.025026
 H         4.957337        -1.108978         1.545395
 H        -0.358268        -1.109690         0.113350
 H        -0.683508         0.787350         0.289783
 H        -0.278001         0.086260        -1.171354
 H         2.133368         0.800229        -2.104290
 H         1.681945         2.019199        -0.928824
 H         4.727905         2.163401        -0.144642
 H         2.241533         0.331592         2.182075
