19
Iteration:  3061charge 0 multiplicity 1
 C         4.205129        -1.749977         0.779469
 C         3.069862        -0.881276         0.289775
 O         1.992727        -1.275400        -0.439166
 C         1.410624         0.028225        -0.127776
 C        -0.112279        -0.097160        -0.035981
 C         2.240841         1.062744        -0.913696
 C         3.408172         0.652496        -0.093511
 O         4.688718         1.242274        -0.095047
 C         2.472152         0.224709         1.000928
 H         3.823712        -2.583291         1.386303
 H         4.850392        -2.175801        -0.009172
 H         4.745418        -1.087556         1.432650
 H        -0.519456        -0.839862         0.625611
 H        -0.615289         0.827071         0.084792
 H        -0.246581        -0.533571        -1.039140
 H         2.345677         1.008538        -1.946068
 H         2.028022         2.059479        -0.580853
 H         4.609096         2.149994         0.172690
 H         2.473288         0.389305         2.080788
