19
Iteration:  1369
 C         4.224143        -1.879156         0.653208
 C         3.265785        -0.819793         0.300582
 O         2.055091        -1.247258        -0.580157
 C         1.420721        -0.070981        -0.152378
 C        -0.043856         0.030169         0.071357
 C         2.274031         0.972522        -0.994843
 C         3.346913         0.691627         0.062670
 O         4.515784         1.350725        -0.054270
 C         2.401268         0.209611         1.085545
 H         3.740039        -2.547184         1.437431
 H         4.350072        -2.608931        -0.174991
 H         5.147781        -1.506849         1.159933
 H        -0.628989        -0.585735         0.752239
 H        -0.382717         0.992095         0.082329
 H        -0.580720        -0.366241        -0.837869
 H         2.562074         0.776565        -2.111807
 H         1.897226         1.930622        -0.844950
 H         4.811502         1.760403         0.786801
 H         2.015392         0.461606         2.036696
