19
Iteration:  1968
 C         4.372196        -1.792973         0.526934
 C         3.179251        -0.844726         0.250140
 O         1.941742        -1.303860        -0.282735
 C         1.406497         0.044805        -0.068088
 C        -0.089240        -0.007909        -0.170796
 C         2.187111         0.947122        -0.996334
 C         3.360862         0.671867        -0.010729
 O         4.631566         1.190842         0.048505
 C         2.440389         0.315922         1.099890
 H         4.056442        -2.620474         1.341140
 H         4.687429        -2.289358        -0.430454
 H         5.125687        -1.031285         0.757986
 H        -0.550849        -0.642380         0.713729
 H        -0.434836         1.048722         0.013848
 H        -0.345835        -0.268399        -1.231307
 H         2.341890         0.663237        -2.095686
 H         1.652212         1.878854        -1.103849
 H         4.519666         1.968918         0.595632
 H         2.221850         0.650341         2.080626
