19
Iteration:  1535charge 0 multiplicity 1
 C         4.166047        -1.898841         0.700104
 C         3.173383        -0.893902         0.340308
 O         2.089191        -1.314183        -0.473967
 C         1.444002         0.045670        -0.140054
 C        -0.086006        -0.021980         0.011824
 C         2.264634         1.040201        -1.056084
 C         3.358747         0.710292        -0.038422
 O         4.582659         1.382382        -0.074851
 C         2.444497         0.206728         1.086277
 H         3.682964        -2.723860         1.361670
 H         4.445950        -2.588992        -0.223665
 H         4.921212        -1.603296         1.436518
 H        -0.295256        -0.883747         0.646717
 H        -0.286143         0.955726         0.467211
 H        -0.665877        -0.339944        -0.874374
 H         2.475289         0.902509        -2.126631
 H         1.920265         2.095786        -0.915254
 H         4.463608         2.182626         0.440585
 H         2.140858         0.223901         2.170113
