19
Iteration:   426
 C         4.276665        -1.790948         0.511872
 C         3.201053        -0.738465         0.298150
 O         2.015619        -1.391600        -0.405686
 C         1.425064        -0.068047        -0.090450
 C        -0.083409        -0.016925        -0.058700
 C         2.222445         1.040612        -0.980307
 C         3.376932         0.678749        -0.101354
 O         4.580148         1.223979         0.167906
 C         2.445603         0.299504         1.011807
 H         3.834319        -2.520679         1.074872
 H         4.464742        -2.277600        -0.435003
 H         5.166699        -1.370915         0.993840
 H        -0.500761        -0.614770         0.729443
 H        -0.313243         1.008361         0.001560
 H        -0.551485        -0.322444        -1.062697
 H         2.262582         0.830810        -2.025431
 H         1.755379         2.011887        -0.649633
 H         4.400479         2.145486         0.396590
 H         2.311595         0.496236         2.151076
