19
Iteration:  2436charge 0 multiplicity 1
 C         4.248745        -1.749189         0.692216
 C         3.152016        -0.794340         0.348815
 O         1.987747        -1.331345        -0.422291
 C         1.360808         0.009909        -0.143563
 C        -0.057817        -0.008974        -0.051564
 C         2.213123         1.035711        -1.001411
 C         3.414896         0.629631        -0.047565
 O         4.722955         1.230645        -0.093864
 C         2.348664         0.183132         1.120527
 H         3.832586        -2.652405         1.192655
 H         4.665206        -2.080001        -0.278898
 H         5.029078        -1.291822         1.313657
 H        -0.397733        -0.887944         0.658743
 H        -0.545229         0.961107         0.359815
 H        -0.446864        -0.180069        -1.050245
 H         2.387742         0.986933        -2.056992
 H         1.866051         2.036909        -0.788448
 H         4.500987         2.154007         0.180419
 H         2.305651         0.452312         2.172816
