19
Iteration:  3595
 C         4.322147        -1.762559         0.706017
 C         3.121290        -0.894477         0.350245
 O         1.932301        -1.295147        -0.446096
 C         1.407983        -0.058193        -0.114297
 C        -0.061844        -0.013738        -0.017294
 C         2.307009         0.947848        -1.050642
 C         3.371645         0.629993        -0.098159
 O         4.620924         1.315632         0.049552
 C         2.387055         0.270731         0.974519
 H         4.192581        -2.410053         1.572002
 H         4.598231        -2.383267        -0.151627
 H         5.179699        -1.084777         1.085216
 H        -0.522153        -0.460483         0.877191
 H        -0.342094         1.037015        -0.166049
 H        -0.487309        -0.538199        -0.797851
 H         2.183563         0.904947        -2.139599
 H         1.885096         1.910886        -0.730689
 H         4.532797         2.279830         0.140844
 H         2.393240         0.539192         2.106241
