19
Iteration:  4371charge 0 multiplicity 1
 C         4.262010        -1.748853         0.632793
 C         3.190589        -0.788645         0.387282
 O         1.981329        -1.386899        -0.447845
 C         1.424972         0.003060        -0.097382
 C        -0.086919        -0.004906        -0.121170
 C         2.203533         0.896623        -0.975168
 C         3.367787         0.599312        -0.051051
 O         4.644467         1.340927        -0.017995
 C         2.438042         0.283466         1.132556
 H         4.072519        -2.292320         1.494332
 H         4.243125        -2.455273        -0.154351
 H         5.148298        -1.154969         0.638855
 H        -0.328162        -0.841914         0.412215
 H        -0.502004         0.934952         0.202696
 H        -0.384849        -0.205949        -1.184110
 H         2.339849         0.665044        -2.069834
 H         1.945028         1.943217        -0.796138
 H         4.353909         2.202394         0.365582
 H         2.232593         0.619477         2.109936
