19
Iteration:    23
 C         4.322370        -1.752753         0.534383
 C         3.215279        -0.770030         0.191487
 O         1.981964        -1.276207        -0.458140
 C         1.393625         0.016846        -0.024699
 C        -0.084708        -0.074466        -0.154396
 C         2.145892         1.022967        -0.917965
 C         3.337184         0.751836         0.087684
 O         4.752262         1.175871         0.091037
 C         2.291600         0.238128         1.171885
 H         4.021362        -2.543153         1.261673
 H         4.728971        -2.265004        -0.338953
 H         5.142295        -1.183539         0.927697
 H        -0.464949        -0.875635         0.452866
 H        -0.577429         0.833011         0.136268
 H        -0.403417        -0.290570        -1.187708
 H         2.306070         0.599150        -1.904460
 H         1.728289         2.035237        -0.964417
 H         4.947970         1.238496        -0.891114
 H         2.100263         0.436116         2.192184
