19
Iteration:   874charge 0 multiplicity 1
 C         4.285568        -1.782801         0.679636
 C         3.186230        -0.947571         0.296410
 O         2.024216        -1.360301        -0.462893
 C         1.358492         0.040631        -0.161303
 C        -0.117203        -0.004944        -0.065696
 C         2.152229         1.070609        -0.996953
 C         3.411847         0.651241        -0.025218
 O         4.609934         1.321160         0.070366
 C         2.521202         0.203936         0.998722
 H         4.020133        -2.801906         1.029736
 H         4.757034        -1.912735        -0.340221
 H         4.885703        -1.383187         1.471642
 H        -0.516623        -0.928513         0.480333
 H        -0.439406         0.764387         0.721325
 H        -0.612583         0.387228        -0.963732
 H         2.213589         0.825275        -2.060097
 H         1.833975         2.124853        -0.656890
 H         4.357802         2.272227         0.201689
 H         2.507733         0.065327         2.143523
