19
Iteration:  2321
 C         4.334037        -1.719074         0.660635
 C         3.207571        -0.798250         0.193458
 O         1.890682        -1.366144        -0.336222
 C         1.427580        -0.034730        -0.057101
 C        -0.144691         0.020524        -0.058531
 C         2.162678         1.007926        -1.066641
 C         3.351015         0.739258        -0.199035
 O         4.655196         1.116329         0.152134
 C         2.506191         0.274704         1.004531
 H         4.058074        -2.542558         1.255602
 H         4.933574        -2.123845        -0.144150
 H         5.058426        -1.111623         1.272419
 H        -0.520828        -0.699762         0.693975
 H        -0.478863         0.997188         0.265011
 H        -0.535751        -0.190942        -1.153554
 H         2.335535         0.788723        -2.168384
 H         1.721609         2.016027        -0.898684
 H         4.675800         2.072398         0.442775
 H         2.612629         0.462126         2.112236
