19
Iteration:  3703charge 0 multiplicity 1
 C         4.236580        -1.720578         0.729991
 C         3.174883        -0.755529         0.322129
 O         2.088080        -1.375341        -0.448499
 C         1.308121         0.051029        -0.078074
 C        -0.128618        -0.022195        -0.104194
 C         2.141342         0.952183        -0.994203
 C         3.425411         0.690289        -0.037987
 O         4.719539         1.187737        -0.023853
 C         2.391541         0.273016         1.092215
 H         3.949023        -2.620957         1.233544
 H         4.744533        -1.936599        -0.206608
 H         5.096692        -1.123001         1.206806
 H        -0.314861        -0.930135         0.549625
 H        -0.716619         0.857005         0.354494
 H        -0.325259        -0.107567        -1.119447
 H         2.183100         0.446525        -2.017488
 H         1.561351         1.900357        -0.975665
 H         4.783041         2.116257        -0.379740
 H         2.261169         0.342214         2.214672
