19
Iteration:   918
 C         4.305647        -1.689524         0.545141
 C         3.114281        -0.822755         0.370149
 O         2.096521        -1.295322        -0.527607
 C         1.394072         0.032021        -0.129853
 C        -0.084227        -0.025941        -0.054336
 C         2.197347         0.953946        -1.022782
 C         3.304124         0.722258        -0.010557
 O         4.613059         1.132681         0.076255
 C         2.396037         0.254630         1.163258
 H         4.137243        -2.702109         1.035346
 H         4.719259        -1.947381        -0.458524
 H         5.085322        -1.254339         1.149756
 H        -0.406566        -1.035284         0.355535
 H        -0.563211         0.700676         0.705422
 H        -0.474838         0.359652        -0.999675
 H         2.261980         0.484547        -2.020921
 H         1.968392         2.082075        -1.051414
 H         4.641461         2.084705         0.334314
 H         2.479629         0.294613         2.297533
