19
Iteration:  1458
 C         4.283026        -1.673234         0.590084
 C         3.140957        -0.809023         0.406736
 O         2.039860        -1.281639        -0.480355
 C         1.420101        -0.043887        -0.173519
 C        -0.154974        -0.026311        -0.018938
 C         2.255696         1.044213        -0.969307
 C         3.383384         0.667233         0.024018
 O         4.733675         1.121459        -0.042219
 C         2.240398         0.230102         1.141350
 H         4.179305        -2.736938         0.950446
 H         4.825677        -1.982150        -0.438731
 H         5.002572        -1.047845         1.157840
 H        -0.285410        -0.935323         0.622774
 H        -0.390950         1.000729         0.290308
 H        -0.633991        -0.181312        -1.061533
 H         2.492684         0.685807        -2.008470
 H         1.885009         2.064856        -0.832089
 H         4.590100         2.103900        -0.051944
 H         1.867880         0.479874         2.188147
