19
Iteration:  3832charge 0 multiplicity 1
 C         4.183342        -1.785680         0.784747
 C         3.101526        -0.857091         0.292666
 O         2.031776        -1.293279        -0.456718
 C         1.430804         0.008935        -0.117773
 C        -0.147059        -0.132953        -0.069646
 C         2.291333         1.037340        -0.960063
 C         3.403819         0.687317        -0.004820
 O         4.619887         1.290002        -0.123118
 C         2.466630         0.254665         1.122595
 H         3.803957        -2.560756         1.434368
 H         4.647632        -2.274292        -0.071999
 H         4.908037        -1.093307         1.329183
 H        -0.215333        -1.119624         0.389336
 H        -0.433704         0.891569         0.411716
 H        -0.618116        -0.280027        -1.032716
 H         2.381279         0.763503        -2.003005
 H         2.007490         2.084750        -1.043220
 H         4.483829         2.191645        -0.411780
 H         2.574223         0.461478         2.160390
