19
Iteration:     4
 C         4.285324        -1.800173         0.559266
 C         3.181256        -0.836112         0.237682
 O         2.018533        -1.259511        -0.476372
 C         1.392189         0.004983        -0.107891
 C        -0.076479        -0.023461        -0.029536
 C         2.203535         1.019350        -0.962423
 C         3.355940         0.662390        -0.016957
 O         4.595319         1.315596         0.144877
 C         2.432116         0.204197         1.082893
 H         3.889570        -2.587049         1.282008
 H         4.588409        -2.359391        -0.303116
 H         5.010155        -1.267206         1.258968
 H        -0.392117        -0.878579         0.578844
 H        -0.456772         0.934491         0.210668
 H        -0.464559        -0.344985        -1.085739
 H         2.223479         0.860130        -2.061588
 H         1.831095         2.052839        -0.758476
 H         5.150827         1.065051        -0.616055
 H         2.241201         0.425222         2.106936
