19
Iteration:  3769
 C         4.214403        -1.730929         0.695335
 C         3.228832        -0.819289         0.223671
 O         1.976237        -1.310773        -0.325706
 C         1.427703         0.019583        -0.068593
 C        -0.114873        -0.035886        -0.049966
 C         2.266193         0.942649        -1.063323
 C         3.418701         0.584657        -0.155200
 O         4.606295         1.346737         0.027350
 C         2.440070         0.220778         1.025275
 H         3.927958        -2.362106         1.527177
 H         4.508642        -2.326227        -0.164877
 H         5.083063        -1.130416         1.017604
 H        -0.762804        -0.455505         0.808989
 H        -0.609496         0.984281        -0.175782
 H        -0.384796        -0.612519        -0.890113
 H         2.230820         0.494845        -2.079083
 H         1.970640         1.976600        -0.934219
 H         4.420613         1.907722         0.796343
 H         2.457019         0.334410         2.037328
