19
Iteration:  4945charge 0 multiplicity 1
 C         4.222766        -1.878225         0.584886
 C         3.220140        -0.803672         0.267929
 O         1.939976        -1.286863        -0.317296
 C         1.357518         0.121078        -0.088959
 C        -0.101355        -0.176656        -0.142568
 C         2.166175         1.057727        -0.963908
 C         3.424136         0.698018        -0.043455
 O         4.667858         1.322267         0.100379
 C         2.459782         0.279579         1.075744
 H         3.963419        -2.534461         1.422792
 H         4.221623        -2.312707        -0.402056
 H         5.168162        -1.426824         0.705411
 H        -0.375366        -1.002718         0.473655
 H        -0.570631         0.753714         0.176402
 H        -0.228535        -0.256184        -1.310146
 H         2.431571         0.711203        -1.960621
 H         1.825563         2.065472        -0.925248
 H         5.266388         0.998121        -0.644116
 H         2.309203         0.438698         2.131862
