19
Iteration:  3589charge 0 multiplicity 1
 C         4.341544        -1.746153         0.690221
 C         3.211393        -0.884198         0.320346
 O         1.902972        -1.344569        -0.429535
 C         1.460805        -0.053113        -0.132900
 C        -0.102272        -0.013119        -0.042256
 C         2.280576         0.937903        -0.982675
 C         3.371523         0.651424        -0.056993
 O         4.601231         1.281100         0.057217
 C         2.384491         0.333494         0.970721
 H         3.954604        -2.428567         1.501159
 H         4.661724        -2.398282        -0.145650
 H         5.169852        -1.171847         0.924326
 H        -0.495644        -0.319194         0.945611
 H        -0.577749         0.980802        -0.186615
 H        -0.639982        -0.549340        -1.011455
 H         2.249927         0.857779        -2.078716
 H         1.870222         1.921846        -0.682658
 H         4.766124         2.272386         0.040030
 H         2.327165         0.691482         1.913543
