19
Iteration:  1509
 C         4.197985        -1.787838         0.753330
 C         3.240900        -0.875312         0.208483
 O         2.016061        -1.268173        -0.476102
 C         1.394513        -0.045774        -0.032999
 C        -0.103633        -0.001205        -0.035451
 C         2.106155         0.980990        -0.988971
 C         3.405469         0.657536        -0.130176
 O         4.677514         1.332796         0.021595
 C         2.491908         0.196851         0.985934
 H         3.585547        -2.629258         1.191614
 H         4.740235        -2.361749         0.109279
 H         4.690133        -1.402439         1.652118
 H        -0.474604        -0.965514         0.310714
 H        -0.271071         0.868597         0.517100
 H        -0.518757         0.014692        -1.042858
 H         2.094729         0.906918        -2.110527
 H         1.902935         1.964676        -0.644082
 H         4.494826         2.061694         0.623696
 H         2.595450         0.569602         1.992387
