19
Iteration:  4062
 C         4.330456        -1.736868         0.664099
 C         3.158783        -0.890375         0.363448
 O         2.038432        -1.258956        -0.388332
 C         1.431224         0.025681        -0.107471
 C        -0.111607         0.025295        -0.019476
 C         2.255305         0.846734        -1.124261
 C         3.334983         0.720121        -0.079752
 O         4.605353         1.269787         0.021757
 C         2.371057         0.174397         1.098536
 H         4.105532        -2.786059         1.031381
 H         5.158161        -1.956476        -0.082435
 H         5.031134        -1.217144         1.335067
 H        -0.685498        -0.827912         0.479645
 H        -0.588467         0.940981         0.481560
 H        -0.521539         0.239838        -0.984632
 H         2.297211         0.341741        -2.145427
 H         1.993560         1.962632        -1.341144
 H         4.513855         2.228577         0.000251
 H         1.886052         0.481406         2.012625
