19
Iteration:  4264
 C         4.235518        -1.778533         0.598792
 C         3.132240        -0.839750         0.383765
 O         2.129093        -1.284542        -0.384239
 C         1.437968        -0.046931        -0.164943
 C        -0.091190         0.003457        -0.044511
 C         2.224501         0.886295        -1.067269
 C         3.322246         0.595453        -0.053051
 O         4.622637         1.317598        -0.050223
 C         2.369821         0.369856         1.109974
 H         4.019820        -2.761872         0.960442
 H         4.961391        -1.760943        -0.168809
 H         4.803243        -1.476234         1.576456
 H        -0.531746        -0.578769         0.680773
 H        -0.398265         0.980914         0.362294
 H        -0.533761        -0.190304        -1.045231
 H         2.173120         0.512386        -2.087366
 H         1.842488         1.864869        -0.909923
 H         4.855127         1.699318         0.849181
 H         1.942617         0.469169         2.032358
