19
Iteration:  1909charge 0 multiplicity 1
 C         4.188086        -1.808314         0.751440
 C         3.173303        -0.802561         0.353134
 O         1.998985        -1.300980        -0.549316
 C         1.450806         0.002329        -0.140675
 C        -0.070912        -0.066968         0.015619
 C         2.278492         1.083687        -1.038780
 C         3.374880         0.779801         0.039087
 O         4.631692         1.218225        -0.115047
 C         2.413534         0.139893         1.105760
 H         3.870763        -2.677968         1.279889
 H         4.682864        -2.127758        -0.169177
 H         5.010440        -1.422292         1.409730
 H        -0.501111        -0.822922         0.761849
 H        -0.440759         0.927098         0.344169
 H        -0.639166        -0.314348        -0.881614
 H         2.562279         0.866550        -2.064879
 H         1.803438         2.099712        -0.884736
 H         4.538994         2.177681         0.057745
 H         2.057673         0.246416         2.199673
