19
Iteration:  1919
 C         4.237118        -1.810443         0.656578
 C         3.140367        -0.840467         0.352614
 O         1.984177        -1.325458        -0.531823
 C         1.402171        -0.026180        -0.114075
 C        -0.034740        -0.050651        -0.029451
 C         2.237341         1.003989        -0.927057
 C         3.347689         0.727709         0.018086
 O         4.724825         1.243371        -0.058358
 C         2.330878         0.273188         1.070598
 H         3.804303        -2.522941         1.257203
 H         4.741298        -2.170919        -0.231133
 H         4.968677        -1.269623         1.325731
 H        -0.225963        -0.805832         0.743533
 H        -0.508105         0.887704         0.299147
 H        -0.404570        -0.311088        -1.031518
 H         2.274240         0.838090        -1.985417
 H         1.901834         2.091423        -0.848526
 H         4.747008         2.232323        -0.167224
 H         2.159427         0.576845         2.207928
