19
Iteration:  1472
 C         4.328820        -1.694804         0.676101
 C         3.140789        -0.795317         0.283483
 O         2.027316        -1.287567        -0.473626
 C         1.356989         0.015946        -0.168016
 C        -0.136703        -0.058830        -0.030823
 C         2.326427         1.027681        -0.981331
 C         3.354654         0.645738        -0.007475
 O         4.622922         1.130506        -0.032678
 C         2.390721         0.183510         1.101482
 H         3.819412        -2.485348         1.161573
 H         4.968035        -1.838209        -0.213040
 H         4.978593        -1.251687         1.428156
 H        -0.644896        -0.828957         0.622990
 H        -0.566882         0.845799         0.625848
 H        -0.663240        -0.005373        -1.019217
 H         2.489441         1.011992        -2.045668
 H         1.948330         2.119949        -0.753928
 H         4.690907         2.068391         0.116963
 H         2.169228         0.542083         2.148193
