19
Iteration:  3798charge 0 multiplicity 1
 C         4.196316        -1.936024         0.759113
 C         3.208097        -0.874868         0.383590
 O         2.118297        -1.329397        -0.425074
 C         1.447492        -0.025896        -0.194969
 C        -0.064241        -0.067393         0.000256
 C         2.139038         1.037345        -1.092114
 C         3.319245         0.781910        -0.079689
 O         4.629426         1.312378        -0.039815
 C         2.420783         0.307191         1.086053
 H         3.785849        -2.673499         1.455234
 H         4.484761        -2.451318        -0.165097
 H         5.181557        -1.431666         1.038400
 H        -0.521871        -0.496575         0.898886
 H        -0.450639         1.020023        -0.009486
 H        -0.495654        -0.345954        -1.006389
 H         2.184929         0.620400        -2.082029
 H         1.630638         2.006316        -0.950950
 H         4.681710         2.231713         0.195977
 H         2.291873         0.687653         2.173176
