19
Iteration:   540
 C         4.257315        -1.734235         0.549007
 C         3.089746        -0.783946         0.298575
 O         1.967085        -1.321771        -0.497940
 C         1.403079         0.028924        -0.063259
 C        -0.076537        -0.051300        -0.049866
 C         2.293151         0.939554        -0.988008
 C         3.405113         0.677582         0.071652
 O         4.645217         1.302349         0.017713
 C         2.419538         0.199793         1.137585
 H         3.840103        -2.685033         1.050384
 H         4.578711        -1.980409        -0.436348
 H         5.010708        -1.230294         1.090960
 H        -0.301100        -1.084298         0.357917
 H        -0.707628         0.881128         0.228129
 H        -0.478182        -0.198915        -1.067274
 H         2.318233         0.467426        -2.045774
 H         1.985173         1.988260        -1.105491
 H         4.799537         2.194430         0.395102
 H         2.391532         0.208188         2.210037
