19
Iteration:  2093
 C         4.178558        -1.796331         0.702060
 C         3.138634        -0.798042         0.333850
 O         2.094911        -1.275639        -0.488170
 C         1.418192         0.027390        -0.107950
 C        -0.089683        -0.043744        -0.075041
 C         2.264209         0.998501        -0.929453
 C         3.393741         0.665865         0.036936
 O         4.615179         1.184050        -0.169564
 C         2.376583         0.266647         1.131655
 H         3.731186        -2.682812         1.148405
 H         4.636299        -2.052481        -0.301447
 H         4.976771        -1.274518         1.347897
 H        -0.224558        -0.899888         0.617704
 H        -0.507882         0.852633         0.383748
 H        -0.583098        -0.376848        -0.999266
 H         2.422003         0.802802        -1.972238
 H         1.780181         1.992763        -0.690599
 H         4.562024         2.029355         0.248496
 H         2.416672         0.791727         2.087601
