19
Iteration:  4406
 C         4.376596        -1.749394         0.652741
 C         3.254664        -0.816613         0.289848
 O         1.920053        -1.416027        -0.297128
 C         1.409403        -0.044498        -0.122026
 C        -0.094993         0.042060        -0.080970
 C         2.203770         0.972404        -1.156926
 C         3.324682         0.734303        -0.158202
 O         4.590967         1.252151         0.093889
 C         2.468924         0.282171         1.095129
 H         3.977820        -2.481126         1.315115
 H         4.622294        -2.174937        -0.231862
 H         5.379590        -1.459604         1.083152
 H        -0.508445        -0.920522         0.234767
 H        -0.747861         0.715043         0.498321
 H        -0.408815         0.087590        -1.076498
 H         2.309298         0.672211        -2.230088
 H         1.917194         2.051156        -1.104028
 H         4.444041         1.712471         0.958578
 H         2.252688         0.934521         2.029989
