19
Iteration:  2977charge 0 multiplicity 1
 C         4.302869        -1.821903         0.586852
 C         3.154103        -0.871400         0.281874
 O         1.928646        -1.363027        -0.353712
 C         1.371842        -0.008983        -0.152409
 C        -0.155300         0.003686        -0.066203
 C         2.276866         0.909730        -1.060961
 C         3.391318         0.736361        -0.047007
 O         4.642105         1.298537         0.070517
 C         2.485512         0.298190         1.150670
 H         4.139695        -2.536758         1.385914
 H         4.597541        -2.331885        -0.321967
 H         5.256231        -1.234131         0.831736
 H        -0.519440        -0.748305         0.688236
 H        -0.466746         0.951214         0.204904
 H        -0.633804         0.055371        -1.096082
 H         2.714255         0.619780        -2.108966
 H         1.961358         1.986715        -1.193809
 H         4.444271         2.284838         0.104241
 H         2.176626         0.594744         2.188270
