19
Iteration:   969charge 0 multiplicity 1
 C         4.239438        -1.817034         0.634463
 C         3.148549        -0.858174         0.306835
 O         2.117614        -1.290128        -0.495328
 C         1.442161         0.020998        -0.061972
 C        -0.092333        -0.024528        -0.140611
 C         2.124246         1.104750        -0.900648
 C         3.321196         0.709263        -0.042832
 O         4.584948         1.238002         0.002788
 C         2.545232         0.156562         1.099898
 H         4.056070        -2.550107         1.358041
 H         4.322869        -2.372333        -0.357709
 H         5.193715        -1.398005         1.007953
 H        -0.595406        -0.488200         0.762915
 H        -0.560748         0.903291        -0.337206
 H        -0.361620        -0.630024        -1.039090
 H         2.115659         0.841933        -1.959018
 H         1.715956         2.042638        -0.539717
 H         4.526323         2.095625         0.442401
 H         2.341242         0.450518         2.256084
