19
Iteration:  4651charge 0 multiplicity 1
 C         4.163028        -1.846169         0.775076
 C         3.213573        -0.756304         0.313901
 O         2.017945        -1.177180        -0.492862
 C         1.377629        -0.031418        -0.082963
 C        -0.040311        -0.165337        -0.079366
 C         2.190301         1.005637        -0.929486
 C         3.405309         0.630859        -0.087143
 O         4.632502         1.369719        -0.114993
 C         2.411282         0.276337         1.146367
 H         3.413762        -2.623802         0.929481
 H         4.774763        -2.265555        -0.072453
 H         4.729423        -1.626106         1.625648
 H        -0.263858        -0.901277         0.671639
 H        -0.496175         0.803654         0.162422
 H        -0.407115        -0.605094        -1.089673
 H         1.877405         0.885166        -2.014669
 H         1.976390         2.029387        -0.581712
 H         5.448906         0.876770        -0.365770
 H         2.619332         0.562367         2.238702
