19
Iteration:  1241charge 0 multiplicity 1
 C         4.340464        -1.757150         0.586696
 C         3.127497        -0.876695         0.353427
 O         1.984064        -1.300673        -0.431009
 C         1.384913         0.020439        -0.072960
 C        -0.071222         0.022285        -0.148488
 C         2.155694         1.038438        -0.934711
 C         3.369013         0.568175        -0.074910
 O         4.657903         1.240277         0.073822
 C         2.449208         0.210840         1.067243
 H         4.033951        -2.610628         1.126513
 H         4.809800        -2.020819        -0.387146
 H         5.141940        -1.248101         1.040700
 H        -0.574238        -0.539957         0.687295
 H        -0.463337         1.046028        -0.078041
 H        -0.279069        -0.404992        -1.166520
 H         1.992146         0.846384        -2.027306
 H         1.876976         2.053120        -0.706263
 H         4.449428         2.170412         0.256403
 H         2.405667         0.515735         2.116589
