19
Iteration:  2896charge 0 multiplicity 1
 C         4.160265        -1.757423         0.772460
 C         3.176854        -0.762498         0.261132
 O         2.021655        -1.256829        -0.575901
 C         1.416477         0.064459        -0.056237
 C        -0.033381        -0.112423         0.009009
 C         2.265821         1.036034        -0.951417
 C         3.397926         0.625231        -0.034845
 O         4.642981         1.229449        -0.104196
 C         2.337291         0.157075         1.084717
 H         3.702717        -2.650244         1.247505
 H         4.948723        -2.085476         0.055378
 H         4.747126        -1.209338         1.465193
 H        -0.412569        -0.790009         0.750047
 H        -0.485563         0.894979         0.297847
 H        -0.442395        -0.562224        -0.943103
 H         2.366982         0.730623        -1.960790
 H         1.954091         2.065608        -0.797619
 H         4.593359         2.221830         0.043432
 H         2.469827         0.379905         2.153625
