19
Iteration:  4820
 C         4.089863        -1.866144         0.695478
 C         3.133859        -0.771455         0.278372
 O         2.091116        -1.232713        -0.386629
 C         1.429569         0.015105        -0.117983
 C        -0.080786        -0.179165        -0.022486
 C         2.173701         1.080972        -1.061244
 C         3.401588         0.702791        -0.059994
 O         4.653308         1.358210        -0.019770
 C         2.479846         0.253547         1.147810
 H         3.564842        -2.699370         1.125456
 H         4.447392        -2.262444        -0.219655
 H         4.995508        -1.463280         1.221310
 H        -0.221599        -1.300290         0.311164
 H        -0.701297         0.550867         0.574522
 H        -0.378633        -0.113684        -1.048029
 H         2.162229         0.883655        -2.142033
 H         1.765251         2.100005        -0.831828
 H         5.304362         0.905417        -0.600810
 H         2.353254         0.144504         2.256439
