19
Iteration:  1566
 C         4.197108        -1.842066         0.599197
 C         3.174373        -0.818717         0.331282
 O         2.065551        -1.293767        -0.474116
 C         1.385033         0.020517        -0.076258
 C        -0.100248        -0.067277        -0.036084
 C         2.273694         0.970378        -1.028154
 C         3.383786         0.611794        -0.059829
 O         4.633184         1.306908         0.052828
 C         2.422941         0.313733         1.096339
 H         3.766872        -2.364769         1.502479
 H         4.331350        -2.370322        -0.369816
 H         5.206694        -1.497161         0.855038
 H        -0.370603        -0.484834         0.934291
 H        -0.580787         0.861199         0.115463
 H        -0.612788        -0.529495        -0.924568
 H         2.373428         0.777986        -2.131708
 H         1.973195         1.985927        -0.896308
 H         4.451886         2.277672         0.001810
 H         2.177869         0.436129         2.194895
