19
Iteration:   931
 C         4.341809        -1.721986         0.557533
 C         3.116568        -0.879485         0.326399
 O         1.956646        -1.342725        -0.451668
 C         1.361523         0.050455        -0.077083
 C        -0.198218        -0.048159        -0.117554
 C         2.242936         1.078097        -0.989918
 C         3.378891         0.711329        -0.028776
 O         4.688364         1.202801         0.096215
 C         2.511848         0.202692         1.097227
 H         4.089383        -2.650758         1.212990
 H         4.779807        -1.957105        -0.390168
 H         5.033177        -1.012956         1.023173
 H        -0.328135        -1.071429         0.238979
 H        -0.749479         0.696927         0.545417
 H        -0.623376        -0.271502        -1.074427
 H         2.486437         0.799893        -2.038739
 H         1.628008         2.010411        -0.998190
 H         4.666540         2.145610         0.312849
 H         2.365092         0.395099         2.103730
