19
Iteration:   975
 C         4.229178        -1.860382         0.630176
 C         3.173058        -0.876635         0.331164
 O         2.145721        -1.267308        -0.530512
 C         1.403785         0.027879        -0.105154
 C        -0.098392        -0.031073        -0.103885
 C         2.116718         1.070883        -0.919411
 C         3.290968         0.758860         0.031090
 O         4.602769         1.266579        -0.021079
 C         2.541109         0.120434         1.139116
 H         3.925195        -2.613553         1.466463
 H         4.360361        -2.367788        -0.292084
 H         5.150302        -1.315578         0.906917
 H        -0.701657        -0.442952         0.668822
 H        -0.423658         1.037959        -0.378676
 H        -0.409703        -0.728538        -0.884127
 H         2.099680         0.771398        -1.995633
 H         1.736617         2.091142        -0.687164
 H         4.729473         2.134767         0.399730
 H         2.417159         0.488213         2.041269
