19
Iteration:  1389
 C         4.201793        -1.856287         0.623723
 C         3.184675        -0.895842         0.324204
 O         2.046074        -1.348569        -0.422070
 C         1.385967         0.004504        -0.109592
 C        -0.067033         0.035412        -0.103040
 C         2.204324         1.069249        -0.956475
 C         3.387028         0.636223        -0.104933
 O         4.602848         1.400697         0.011950
 C         2.460198         0.189409         1.068591
 H         3.924896        -2.719596         1.341160
 H         4.443062        -2.456725        -0.275083
 H         5.167426        -1.260860         0.891594
 H        -0.209321        -0.467807         0.887906
 H        -0.614370         0.979976        -0.174938
 H        -0.532125        -0.619553        -0.898828
 H         2.238642         0.802016        -2.034703
 H         1.889500         2.048743        -0.664853
 H         4.606166         1.853715         0.893763
 H         2.352458         0.381440         2.139435
