19
Iteration:  4974charge 0 multiplicity 1
 C         4.168961        -1.888458         0.711812
 C         3.197191        -0.824836         0.280704
 O         2.106732        -1.247746        -0.534262
 C         1.381622         0.006062        -0.084867
 C        -0.111051        -0.082524        -0.103483
 C         2.167266         1.069848        -0.890164
 C         3.386551         0.638056        -0.035291
 O         4.554792         1.362614        -0.006356
 C         2.495267         0.246100         1.121100
 H         4.089432        -2.271148         1.789922
 H         4.035305        -2.698239         0.009658
 H         5.153862        -1.426043         0.590870
 H        -0.612918        -0.989906         0.360877
 H        -0.228175         0.896464         0.379179
 H        -0.384070         0.025198        -1.125324
 H         2.345822         0.846763        -1.970970
 H         1.807031         2.106923        -0.743761
 H         5.278404         0.759753        -0.330625
 H         2.429395         0.515159         2.150654
