19
Iteration:   686
 C         4.162107        -1.787900         0.700730
 C         3.230439        -0.758634         0.140203
 O         2.003820        -1.268450        -0.450232
 C         1.433118        -0.003134        -0.080500
 C        -0.169679        -0.125959        -0.028453
 C         2.284627         1.086901        -0.977261
 C         3.386818         0.684182        -0.075463
 O         4.598709         1.284055         0.040478
 C         2.520471         0.110659         1.103167
 H         3.486816        -2.504744         0.946448
 H         4.812314        -2.265369        -0.056983
 H         4.697076        -1.483231         1.626524
 H        -0.337660        -1.144057         0.229702
 H        -0.706101         0.414896         0.710982
 H        -0.683363         0.113288        -0.989494
 H         2.432339         0.884330        -2.019749
 H         1.947158         2.060392        -0.690967
 H         4.457709         2.221904        -0.152608
 H         2.812705         0.544271         2.019784
