19
Iteration:  3081charge 0 multiplicity 1
 C         4.198897        -1.894876         0.841266
 C         3.235803        -0.781125         0.347464
 O         2.088862        -1.240001        -0.535803
 C         1.493880         0.010666        -0.137849
 C        -0.091825        -0.051715        -0.059391
 C         2.189137         1.073741        -0.993166
 C         3.374314         0.664259        -0.062095
 O         4.576723         1.212330        -0.149133
 C         2.390742         0.242935         1.143836
 H         3.513343        -2.708473         1.227275
 H         4.677711        -2.389793        -0.057781
 H         4.852851        -1.549721         1.585808
 H        -0.155966        -0.834594         0.648146
 H        -0.417170         0.906905         0.473583
 H        -0.687947        -0.413721        -0.804610
 H         2.128265         0.889655        -2.092510
 H         1.885311         2.124714        -0.764025
 H         4.484196         2.167896         0.099078
 H         2.316164         0.647380         2.130001
