19
Iteration:  1291charge 0 multiplicity 1
 C         4.232801        -1.736405         0.604791
 C         3.166627        -0.779383         0.370352
 O         2.085612        -1.249973        -0.478086
 C         1.368799        -0.050568        -0.040703
 C        -0.117016        -0.017042        -0.095545
 C         2.195027         0.993923        -1.000567
 C         3.372023         0.682800        -0.079454
 O         4.689622         1.156085         0.026763
 C         2.384470         0.213942         1.129627
 H         3.936944        -2.770252         0.999254
 H         4.832904        -1.809522        -0.317612
 H         5.083852        -1.208806         1.184140
 H        -0.474204        -0.996195         0.226568
 H        -0.649662         0.586183         0.665210
 H        -0.441573         0.404097        -1.080375
 H         2.137709         0.700122        -2.086511
 H         1.765307         1.985859        -0.766338
 H         4.733080         2.143015        -0.066967
 H         2.174705         0.339861         2.262085
