19
Iteration:  2923
 C         4.145615        -1.885581         0.840135
 C         3.173468        -0.827640         0.309688
 O         2.080826        -1.322182        -0.484822
 C         1.397492         0.021699        -0.188584
 C        -0.093027        -0.068145        -0.032811
 C         2.195025         1.099048        -0.944898
 C         3.372887         0.786923        -0.043866
 O         4.656469         1.279304        -0.139146
 C         2.418580         0.162978         1.023671
 H         3.763488        -2.754736         1.370495
 H         4.777286        -2.177956        -0.000231
 H         5.014835        -1.343876         1.337085
 H        -0.304918        -0.886922         0.710600
 H        -0.502149         0.748567         0.507779
 H        -0.655673        -0.303266        -0.913392
 H         2.413693         1.015097        -2.078399
 H         1.653387         2.007201        -0.563251
 H         4.966419         2.058397         0.421531
 H         2.487818         0.416475         2.075947
