19
Iteration:   325
 C         4.132186        -1.803238         0.670906
 C         3.195060        -0.805362         0.175424
 O         2.162306        -1.204557        -0.551648
 C         1.411400        -0.019747        -0.036908
 C        -0.116618        -0.050121        -0.007786
 C         2.118028         1.020454        -0.937403
 C         3.404931         0.659767        -0.168803
 O         4.634591         1.215906         0.091501
 C         2.490254         0.163452         1.106290
 H         3.489397        -2.328891         1.328791
 H         4.820817        -2.336049        -0.061768
 H         4.722097        -1.226846         1.353932
 H        -0.483650        -0.893979         0.642744
 H        -0.611959         0.892705         0.464726
 H        -0.488609        -0.302864        -1.004632
 H         2.060997         0.917187        -2.081428
 H         1.867556         2.083731        -0.694442
 H         4.575328         2.208272         0.116024
 H         2.415841         0.383454         2.129643
