19
Iteration:  3355
 C         4.367385        -1.778036         0.635221
 C         3.165809        -0.889226         0.354324
 O         2.023230        -1.310451        -0.420021
 C         1.393921         0.042888        -0.047914
 C        -0.150782        -0.025157        -0.151827
 C         2.250778         1.034631        -1.037127
 C         3.300668         0.579277         0.024985
 O         4.692543         1.182112         0.002313
 C         2.335609         0.340327         1.124992
 H         4.147169        -2.488500         1.379812
 H         4.589536        -2.219446        -0.308095
 H         5.156087        -1.052235         1.023829
 H        -0.469592        -0.552775         0.783614
 H        -0.541517         1.084194        -0.065681
 H        -0.508470        -0.429012        -1.081603
 H         2.399225         0.653297        -2.064586
 H         1.948271         2.082651        -1.085359
 H         4.438433         2.063436        -0.297909
 H         2.160958         0.810167         2.033175
