19
Iteration:  2747
 C         4.221844        -1.821655         0.822830
 C         3.194270        -0.847463         0.327937
 O         2.084510        -1.168363        -0.608107
 C         1.356555         0.084787        -0.177603
 C        -0.135953        -0.095043         0.063378
 C         2.190414         1.077823        -1.007781
 C         3.446385         0.642579        -0.065502
 O         4.643922         1.208952        -0.059557
 C         2.440901         0.178538         1.109298
 H         3.860344        -2.503928         1.645073
 H         4.484181        -2.506677        -0.009999
 H         5.066097        -1.438282         1.356356
 H        -0.345668        -1.007003         0.658929
 H        -0.578113         0.796143         0.384026
 H        -0.666055        -0.427423        -0.959665
 H         2.197472         0.811544        -2.091536
 H         1.819878         2.115454        -0.936167
 H         4.552799         2.191837         0.013793
 H         2.120178         0.253153         2.199472
