19
Iteration:  3797charge 0 multiplicity 1
 C         4.198028        -1.932864         0.756118
 C         3.209588        -0.874647         0.379634
 O         2.113536        -1.334426        -0.426087
 C         1.445841        -0.018961        -0.205345
 C        -0.062890        -0.067276         0.001251
 C         2.136677         1.033438        -1.093880
 C         3.314316         0.783352        -0.072211
 O         4.627241         1.311192        -0.037261
 C         2.433486         0.311320         1.089495
 H         3.789935        -2.678604         1.483764
 H         4.493414        -2.465284        -0.171795
 H         5.173509        -1.436467         1.048244
 H        -0.534901        -0.457105         0.871812
 H        -0.433602         0.983485        -0.003858
 H        -0.513188        -0.359963        -1.009987
 H         2.185668         0.597711        -2.084074
 H         1.616011         2.005060        -0.947804
 H         4.677694         2.226225         0.224038
 H         2.329765         0.706546         2.198454
