19
Iteration:   335
 C         4.221431        -1.760947         0.693988
 C         3.295426        -0.733898         0.222679
 O         2.067361        -1.274801        -0.603738
 C         1.407727        -0.007869        -0.082782
 C        -0.139564        -0.058946         0.004275
 C         2.093438         1.020198        -0.914502
 C         3.380373         0.673627        -0.047608
 O         4.683459         1.184000         0.075553
 C         2.415600         0.198792         1.058041
 H         3.616489        -2.571744         1.191478
 H         4.647928        -2.479947        -0.103689
 H         5.024076        -1.425295         1.332969
 H        -0.556325        -0.908778         0.604182
 H        -0.513353         1.023529         0.226854
 H        -0.504223        -0.073690        -0.987663
 H         2.096765         0.844621        -2.062706
 H         1.625566         1.938123        -0.507906
 H         4.655920         2.174976        -0.018124
 H         2.539373         0.521281         2.020855
