19
Iteration:  1364charge 0 multiplicity 1
 C         4.206666        -1.879200         0.679411
 C         3.285693        -0.813497         0.298128
 O         2.072149        -1.254772        -0.609093
 C         1.409707        -0.074494        -0.135005
 C        -0.064688         0.043001         0.064117
 C         2.278768         0.963965        -1.007822
 C         3.319912         0.696455         0.047262
 O         4.528705         1.348554        -0.052407
 C         2.401178         0.209313         1.089387
 H         3.662204        -2.555422         1.368642
 H         4.452598        -2.600605        -0.108599
 H         5.181678        -1.481918         1.057560
 H        -0.336468        -0.681797         0.901631
 H        -0.620913         1.074188         0.244947
 H        -0.488776        -0.223677        -0.917215
 H         2.551496         0.621920        -1.966130
 H         1.875446         2.028822        -0.836619
 H         4.875284         1.756498         0.760182
 H         1.920103         0.384533         2.099855
