19
Iteration:  4558
 C         4.341602        -1.793781         0.576773
 C         3.212716        -0.822138         0.353394
 O         1.990580        -1.314113        -0.338180
 C         1.419087        -0.084541        -0.187752
 C        -0.114534         0.036648         0.021654
 C         2.284244         0.948341        -1.100466
 C         3.329947         0.656627        -0.064199
 O         4.578287         1.398449         0.077032
 C         2.323933         0.242364         1.011316
 H         4.066823        -2.576481         1.278462
 H         4.508971        -2.320649        -0.406431
 H         5.339037        -1.289354         0.840287
 H        -0.589008        -0.722972         0.689382
 H        -0.431081         1.036447         0.403502
 H        -0.681286        -0.056004        -0.910873
 H         2.426431         0.636277        -2.144292
 H         1.929340         2.002132        -1.026221
 H         5.216076         0.796560         0.476820
 H         2.274629         0.513980         2.110166
