19
Iteration:   323
 C         4.126845        -1.808987         0.672669
 C         3.186720        -0.816514         0.172119
 O         2.161212        -1.199708        -0.544094
 C         1.398488        -0.019574        -0.035053
 C        -0.107330        -0.054543        -0.015677
 C         2.131935         1.036750        -0.937298
 C         3.402972         0.660178        -0.176656
 O         4.628374         1.225863         0.088833
 C         2.503480         0.158637         1.104337
 H         3.465413        -2.407042         1.399539
 H         4.809738        -2.296953        -0.067948
 H         4.718706        -1.205727         1.368932
 H        -0.458532        -0.878776         0.668276
 H        -0.583488         0.847711         0.498218
 H        -0.455508        -0.320826        -0.955687
 H         2.045712         0.915112        -2.095172
 H         1.906691         2.095665        -0.763486
 H         4.543468         2.189573         0.148141
 H         2.397892         0.333292         2.121126
