19
Iteration:   383
 C         4.339005        -1.684646         0.525993
 C         3.145607        -0.876155         0.345270
 O         1.957054        -1.301050        -0.489491
 C         1.401737        -0.000555        -0.057285
 C        -0.084202         0.019851        -0.127018
 C         2.257976         0.944128        -0.898041
 C         3.375980         0.604391        -0.055285
 O         4.579349         1.245605         0.049377
 C         2.395948         0.244119         1.130541
 H         4.290433        -2.565656         1.083878
 H         4.490309        -2.130860        -0.427486
 H         5.239209        -1.152397         0.858269
 H        -0.434267        -0.774689         0.555857
 H        -0.516913         0.934237         0.183203
 H        -0.482949        -0.179593        -1.229524
 H         2.418679         0.581587        -1.874460
 H         2.260316         2.075895        -0.824526
 H         4.504660         2.057326         0.537281
 H         2.388037         0.587186         2.268896
