19
Iteration:  3126charge 0 multiplicity 1
 C         4.177946        -1.814643         0.724018
 C         3.173151        -0.846112         0.261992
 O         1.963216        -1.301533        -0.387788
 C         1.382327         0.045527        -0.155557
 C        -0.052371        -0.026639         0.025058
 C         2.281591         0.903211        -1.043445
 C         3.408388         0.646020        -0.116816
 O         4.604041         1.348389         0.032689
 C         2.498197         0.240861         0.990591
 H         3.722095        -2.565333         1.389329
 H         4.741201        -2.410437        -0.035045
 H         4.831294        -1.157273         1.326850
 H        -0.295426        -0.978905         0.440548
 H        -0.506927         0.852660         0.534825
 H        -0.479148        -0.122929        -0.936871
 H         2.453783         0.741866        -2.109831
 H         1.878487         1.931518        -0.897478
 H         4.415603         2.326052         0.086370
 H         2.463758         0.418226         2.108268
