19
Iteration:    45charge 0 multiplicity 1
 C         4.301420        -1.644798         0.499405
 C         3.109770        -0.898970         0.430411
 O         2.034451        -1.257034        -0.424132
 C         1.405255         0.033264        -0.147089
 C        -0.179538        -0.071400        -0.166037
 C         2.240670         1.070929        -0.937112
 C         3.355320         0.586959        -0.034628
 O         4.588709         1.185407         0.098024
 C         2.521613         0.237845         1.173474
 H         4.076927        -2.484033         1.186846
 H         4.520644        -2.090530        -0.425283
 H         5.163085        -1.110929         0.901349
 H        -0.557413        -0.909999         0.384366
 H        -0.684683         0.814936         0.066354
 H        -0.480953        -0.301514        -1.224929
 H         2.278857         1.183295        -2.018599
 H         2.030027         2.018186        -0.416892
 H         4.903694         1.360567        -0.783416
 H         2.454183         0.462840         2.197112
