19
Iteration:  4448charge 0 multiplicity 1
 C         4.356683        -1.717639         0.781299
 C         3.228709        -0.854043         0.348342
 O         2.031301        -1.322386        -0.545930
 C         1.384378         0.061929        -0.118238
 C        -0.180618         0.001957        -0.004806
 C         2.315447         0.955677        -1.042426
 C         3.346916         0.651771        -0.006590
 O         4.606350         1.237566        -0.054627
 C         2.327764         0.198025         1.076765
 H         3.893058        -2.585178         1.141060
 H         4.758457        -2.047922        -0.160078
 H         5.050961        -1.366509         1.559131
 H        -0.276114        -0.766686         0.683670
 H        -0.564430         0.955293         0.407058
 H        -0.661058        -0.181165        -0.977077
 H         2.397908         0.651357        -2.118134
 H         1.845438         1.939465        -0.959147
 H         4.546086         2.240061        -0.070184
 H         2.188912         0.505995         2.144097
