19
Iteration:  4461charge 0 multiplicity 1
 C         4.327116        -1.811923         0.795550
 C         3.201196        -0.775049         0.256536
 O         2.024010        -1.310898        -0.488385
 C         1.366226         0.034232        -0.179560
 C        -0.055623        -0.013610        -0.036700
 C         2.187017         1.023991        -0.930916
 C         3.346961         0.671065        -0.009284
 O         4.595931         1.218276        -0.043584
 C         2.386333         0.206047         1.021628
 H         3.933831        -2.641356         1.338332
 H         5.080032        -2.145112         0.220784
 H         4.895541        -1.136266         1.494460
 H        -0.358111        -0.709160         0.749714
 H        -0.555724         0.939749         0.195714
 H        -0.477697        -0.451829        -0.869208
 H         2.438280         0.750729        -1.970046
 H         2.031744         2.119241        -0.826880
 H         4.502116         2.036348        -0.525904
 H         2.209271         0.264389         2.149977
