19
Iteration:   196charge 0 multiplicity 1
 C         4.316306        -1.784758         0.573363
 C         3.176088        -0.884013         0.370190
 O         2.051252        -1.292972        -0.527573
 C         1.414596        -0.056291        -0.080142
 C        -0.076522        -0.003041        -0.105988
 C         2.220588         1.059285        -0.972624
 C         3.279542         0.706205         0.053584
 O         4.610241         1.295137         0.028787
 C         2.332562         0.223802         1.170370
 H         4.081832        -2.577336         1.265381
 H         4.736084        -2.355946        -0.342412
 H         5.060827        -1.181428         1.066318
 H        -0.594480        -0.767362         0.504133
 H        -0.422293         1.027536         0.168840
 H        -0.362462        -0.056139        -1.146105
 H         2.365100         0.983247        -2.036958
 H         1.974412         2.094489        -0.729023
 H         4.984391         0.694824        -0.612088
 H         2.361014         0.536869         2.201830
