19
Iteration:  3833
 C         4.186090        -1.786388         0.787727
 C         3.096341        -0.863025         0.293524
 O         2.028818        -1.291092        -0.459393
 C         1.422985         0.007745        -0.108051
 C        -0.143149        -0.129748        -0.078485
 C         2.288311         1.043992        -0.966167
 C         3.393226         0.694679        -0.001965
 O         4.624466         1.288718        -0.123088
 C         2.481984         0.252189         1.120606
 H         3.845274        -2.557795         1.449534
 H         4.675103        -2.265059        -0.055465
 H         4.874650        -1.108396         1.328368
 H        -0.232428        -1.138672         0.399308
 H        -0.452519         0.873109         0.443230
 H        -0.597150        -0.279653        -1.025288
 H         2.396952         0.735979        -1.997869
 H         1.997337         2.072980        -1.042364
 H         4.496240         2.181898        -0.409575
 H         2.565013         0.453836         2.120545
