19
Iteration:  3922charge 0 multiplicity 1
 C         4.280935        -1.695301         0.627302
 C         3.195328        -0.854882         0.314924
 O         1.995404        -1.306166        -0.389866
 C         1.413486         0.004596        -0.097490
 C        -0.140246         0.040443        -0.020118
 C         2.295139         0.843405        -1.123079
 C         3.369503         0.642041        -0.046273
 O         4.601515         1.295415         0.050887
 C         2.425716         0.265401         1.079841
 H         3.960642        -2.553830         1.212629
 H         4.683456        -2.121371        -0.310974
 H         5.047477        -1.102778         1.022879
 H        -0.420389        -0.647984         0.811700
 H        -0.669577         0.990996        -0.144105
 H        -0.531652        -0.511793        -0.850824
 H         2.367559         0.408193        -2.087010
 H         1.991842         1.836341        -1.278611
 H         4.373184         2.085699         0.526399
 H         2.301333         0.404841         2.161942
