19
Iteration:  1817
 C         4.217043        -1.808344         0.578519
 C         3.121812        -0.846355         0.437208
 O         2.097007        -1.250963        -0.436573
 C         1.385881         0.023351        -0.125690
 C        -0.086214        -0.019139        -0.082206
 C         2.230510         0.903361        -1.065752
 C         3.380808         0.669980         0.013325
 O         4.638239         1.256957        -0.010335
 C         2.410363         0.271556         1.163235
 H         4.342234        -2.726514         1.193615
 H         4.283178        -2.056526        -0.479284
 H         5.062185        -1.250668         0.881378
 H        -0.610953        -0.662751         0.564346
 H        -0.308847         1.008173         0.218787
 H        -0.634892        -0.225749        -1.049708
 H         2.171653         0.419822        -2.090979
 H         1.797749         1.900051        -1.073219
 H         4.707713         2.159527         0.289488
 H         2.238937         0.568364         2.135826
