19
Iteration:  2001charge 0 multiplicity 1
 C         4.297544        -1.784755         0.630127
 C         3.206867        -0.877020         0.350946
 O         2.059078        -1.372717        -0.450409
 C         1.394785         0.006089        -0.127776
 C        -0.169978         0.070335        -0.039986
 C         2.305452         1.007479        -1.040196
 C         3.332887         0.650438        -0.000152
 O         4.570750         1.267542        -0.044515
 C         2.386778         0.254831         1.105606
 H         4.082142        -2.672049         1.421426
 H         4.537595        -2.277332        -0.358921
 H         5.168387        -1.132952         0.899180
 H        -0.595294        -0.549711         0.853195
 H        -0.226982         1.181727         0.164073
 H        -0.711639        -0.305206        -0.982754
 H         2.634967         0.568830        -2.031942
 H         1.813768         1.961911        -0.919295
 H         4.764182         1.936201         0.664197
 H         2.133487         0.602227         2.120729
