19
Iteration:  2232
 C         4.200224        -1.906650         0.800158
 C         3.234244        -0.859552         0.291803
 O         1.951003        -1.235935        -0.454189
 C         1.371325         0.001219        -0.128327
 C        -0.065235        -0.103083        -0.028326
 C         2.128999         1.049323        -0.973422
 C         3.389844         0.671515        -0.162163
 O         4.681096         1.273720         0.001311
 C         2.539253         0.259925         1.013323
 H         3.760717        -2.585349         1.507068
 H         4.802445        -2.384937         0.031136
 H         4.883449        -1.221096         1.337128
 H        -0.552025        -0.876134         0.487712
 H        -0.463454         0.956628         0.167234
 H        -0.529688        -0.397466        -1.082608
 H         2.011652         1.081921        -2.085321
 H         1.959968         1.992909        -0.489657
 H         4.598840         2.265491         0.117100
 H         2.564561         0.770809         1.953469
