19
Iteration:  1384charge 0 multiplicity 1
 C         4.212931        -1.881101         0.645225
 C         3.152146        -0.879475         0.310579
 O         2.067498        -1.325133        -0.443599
 C         1.416782        -0.001394        -0.123277
 C        -0.070959        -0.015873        -0.063576
 C         2.234592         1.053077        -0.963674
 C         3.368374         0.648237        -0.078540
 O         4.582920         1.403046        -0.007715
 C         2.410601         0.179113         1.073107
 H         3.871545        -2.620259         1.326910
 H         4.496708        -2.424613        -0.267470
 H         5.128442        -1.387200         0.824315
 H        -0.261384        -0.287424         0.981927
 H        -0.391498         1.098689        -0.135137
 H        -0.473714        -0.465983        -0.963711
 H         2.289785         0.819546        -2.026998
 H         1.893951         2.094476        -0.670610
 H         4.653642         1.808665         0.855873
 H         2.422208         0.450443         2.150660
