19
Iteration:   350
 C         4.353642        -1.836763         0.683079
 C         3.162670        -0.831922         0.297084
 O         2.002323        -1.304399        -0.517074
 C         1.386515        -0.075334        -0.140030
 C        -0.107811        -0.015837        -0.055821
 C         2.160485         1.131338        -0.923320
 C         3.338621         0.768780        -0.026110
 O         4.683409         1.195624         0.020890
 C         2.400521         0.183228         1.062262
 H         3.977183        -2.586468         1.289991
 H         4.747905        -2.144322        -0.274085
 H         5.196737        -1.280838         1.145633
 H        -0.421462        -0.831021         0.603701
 H        -0.382147         0.907424         0.423835
 H        -0.695254        -0.209290        -1.061151
 H         2.307275         0.974443        -1.968518
 H         1.845881         2.197183        -0.755341
 H         4.755652         2.171576         0.026587
 H         2.092753         0.218667         2.197895
