19
Iteration:  3517
 C         4.285192        -1.784167         0.740262
 C         3.186715        -0.773620         0.381393
 O         1.970754        -1.300528        -0.315441
 C         1.361846         0.000443        -0.132004
 C        -0.156951        -0.073319        -0.136484
 C         2.289260         1.069078        -1.009065
 C         3.373463         0.644521        -0.128620
 O         4.633704         1.206464        -0.065470
 C         2.469257         0.223101         1.037485
 H         4.063043        -2.712774         1.289797
 H         4.749077        -2.001123        -0.231324
 H         5.189352        -1.220331         1.164644
 H        -0.489126        -0.899419         0.460673
 H        -0.693365         0.835668         0.264699
 H        -0.468816        -0.107713        -1.096243
 H         2.340253         0.924106        -2.109682
 H         2.023029         2.104712        -0.733162
 H         4.504890         2.047194         0.462635
 H         2.136208         0.421496         2.044758
