19
Iteration:  4470charge 0 multiplicity 1
 C         4.249542        -1.767808         0.806668
 C         3.159800        -0.857794         0.223123
 O         2.034074        -1.272761        -0.458925
 C         1.425739        -0.061306        -0.129721
 C        -0.074484        -0.064472        -0.046524
 C         2.193963         1.113901        -0.964361
 C         3.356490         0.658835        -0.088135
 O         4.624705         1.250864        -0.028105
 C         2.427198         0.193816         1.093752
 H         3.866659        -2.583963         1.338984
 H         4.973941        -2.146899         0.086720
 H         4.728259        -1.095827         1.565738
 H        -0.356822        -0.621051         0.793482
 H        -0.359467         1.002521        -0.044274
 H        -0.413299        -0.483913        -0.998949
 H         2.159031         0.929485        -2.068042
 H         1.849698         2.136943        -0.729989
 H         4.659085         1.967217        -0.650566
 H         2.225682         0.224532         2.218076
