19
Iteration:  1667
 C         4.175086        -1.780462         0.694723
 C         3.147210        -0.793120         0.321256
 O         2.059228        -1.344591        -0.433766
 C         1.405024         0.003803        -0.112970
 C        -0.057405        -0.002985        -0.010328
 C         2.205823         0.996729        -1.047411
 C         3.393108         0.610487        -0.145120
 O         4.629077         1.303528         0.026394
 C         2.498210         0.210112         1.096168
 H         3.552535        -2.587369         0.932042
 H         4.852409        -2.202288        -0.113616
 H         4.807788        -1.360032         1.486255
 H        -0.511403        -0.866950         0.383503
 H        -0.519840         0.871444         0.417945
 H        -0.416760         0.051116        -1.021616
 H         2.052479         0.641504        -2.010329
 H         1.846846         2.000943        -0.824839
 H         4.439285         2.240922         0.070987
 H         2.417474         0.493751         2.099928
