19
Iteration:  4307charge 0 multiplicity 1
 C         4.195539        -1.751249         0.739325
 C         3.162319        -0.890110         0.259553
 O         1.987970        -1.247379        -0.430247
 C         1.388481         0.025359        -0.075516
 C        -0.044837        -0.147780        -0.046739
 C         2.183305         1.079241        -0.991441
 C         3.438164         0.632703        -0.145589
 O         4.633741         1.232851        -0.011452
 C         2.488324         0.233600         1.028450
 H         3.987128        -2.505133         1.472442
 H         4.931770        -2.123382         0.095100
 H         4.644814        -0.977086         1.443032
 H        -0.475780        -0.489297         0.846819
 H        -0.543513         0.809424        -0.280607
 H        -0.334564        -0.831741        -0.860024
 H         2.215198         1.055570        -2.101246
 H         1.878243         2.084096        -0.722620
 H         4.452151         2.154000         0.371609
 H         2.295294         0.433708         2.037570
