19
Iteration:  3875charge 0 multiplicity 1
 C         4.264622        -1.665059         0.726674
 C         3.190913        -0.839835         0.325296
 O         2.120765        -1.371607        -0.383341
 C         1.395554        -0.034048        -0.122738
 C        -0.173829        -0.023523        -0.100772
 C         2.169290         0.978388        -0.944733
 C         3.342102         0.650415        -0.140372
 O         4.630518         1.148242        -0.054246
 C         2.444137         0.320961         1.056376
 H         3.788984        -2.553796         1.125691
 H         4.939384        -1.901460        -0.115037
 H         4.872862        -0.999880         1.448810
 H        -0.609640        -0.898969         0.351713
 H        -0.362732         1.019088         0.354654
 H        -0.658167         0.235965        -1.041525
 H         2.281942         0.992818        -2.038283
 H         1.836213         2.017711        -0.727271
 H         4.545064         2.009435         0.424284
 H         2.487155         0.555026         2.076156
