19
Iteration:  4465
 C         4.293490        -1.793375         0.807117
 C         3.168030        -0.789872         0.227646
 O         2.032366        -1.289387        -0.465472
 C         1.382704        -0.024441        -0.171096
 C        -0.053792        -0.026058        -0.035609
 C         2.182307         1.075293        -0.940221
 C         3.350087         0.657805        -0.040760
 O         4.607135         1.230369        -0.035607
 C         2.409805         0.202514         1.062597
 H         3.927937        -2.731569         1.384026
 H         5.148096        -2.241878         0.139205
 H         4.764962        -1.091312         1.482763
 H        -0.348984        -0.737249         0.824167
 H        -0.445047         0.992304         0.066637
 H        -0.424112        -0.515280        -1.005275
 H         2.298108         0.809804        -1.999163
 H         2.006508         2.154196        -0.801164
 H         4.575528         2.026009        -0.619980
 H         2.202711         0.220191         2.085729
