19
Iteration:  1104charge 0 multiplicity 1
 C         4.415934        -1.745905         0.647590
 C         3.192509        -0.927775         0.351682
 O         2.039251        -1.314573        -0.378967
 C         1.320143         0.091264        -0.131057
 C        -0.156315         0.042335        -0.189692
 C         2.208491         1.061493        -0.917722
 C         3.358433         0.639175        -0.064656
 O         4.604809         1.220021        -0.069112
 C         2.402886         0.107794         1.134422
 H         4.117820        -2.742949         1.137398
 H         4.989701        -1.889898        -0.231374
 H         5.096173        -1.133175         1.225147
 H        -0.533652        -0.894618         0.161664
 H        -0.674234         0.752459         0.580844
 H        -0.465107         0.444518        -1.148103
 H         2.146057         0.874114        -1.988217
 H         2.093025         2.200203        -0.789346
 H         4.569232         1.932173         0.618462
 H         2.181717         0.305448         2.091833
