19
Iteration:  2686charge 0 multiplicity 1
 C         4.347244        -1.871425         0.674046
 C         3.178603        -0.839443         0.252083
 O         2.015360        -1.246648        -0.363267
 C         1.406744         0.052001        -0.041814
 C        -0.165496        -0.039839        -0.070732
 C         2.132634         1.056340        -1.025127
 C         3.376233         0.572700        -0.124537
 O         4.644140         1.220572         0.063320
 C         2.503237         0.251226         1.049512
 H         3.867044        -2.837515         0.756041
 H         5.031658        -1.905677        -0.160875
 H         4.880835        -1.449563         1.583900
 H        -0.902560        -0.644465         0.568697
 H        -0.470263         1.082959        -0.087057
 H        -0.240674        -0.296641        -1.073766
 H         2.064544         0.647104        -2.079507
 H         1.744384         2.127854        -0.957787
 H         4.405843         2.122801         0.269919
 H         2.452525         0.949033         1.883169
