19
Iteration:  1485
 C         4.275151        -1.730919         0.746094
 C         3.197925        -0.867417         0.256753
 O         2.019793        -1.300849        -0.481285
 C         1.395590         0.039338        -0.083888
 C        -0.108770        -0.003343        -0.051172
 C         2.166458         1.071828        -0.979121
 C         3.337670         0.653610        -0.095550
 O         4.634074         1.164634         0.011415
 C         2.445063         0.216147         1.029874
 H         4.043711        -2.689416         1.144243
 H         4.897509        -2.024322        -0.008288
 H         4.800153        -1.176609         1.535061
 H        -0.237211        -1.049140         0.303263
 H        -0.463670         0.898374         0.559957
 H        -0.549943        -0.030241        -1.019912
 H         2.237049         0.745784        -2.008077
 H         1.903106         2.169631        -0.805061
 H         4.535026         2.104198         0.328790
 H         2.592483         0.240297         2.064530
