19
Iteration:  2061charge 0 multiplicity 1
 C         4.178480        -1.832280         0.812979
 C         3.260714        -0.782301         0.210316
 O         1.974291        -1.236415        -0.473277
 C         1.405497         0.019293        -0.144973
 C        -0.092406        -0.099040        -0.002936
 C         2.185688         1.046144        -0.990495
 C         3.431971         0.676495        -0.079072
 O         4.693029         1.231041        -0.035924
 C         2.399853         0.204814         1.047692
 H         3.570389        -2.623806         1.249204
 H         4.802495        -2.371777         0.063722
 H         4.977192        -1.422185         1.520237
 H        -0.234674        -0.907163         0.746540
 H        -0.585221         0.707172         0.490095
 H        -0.714680        -0.298797        -0.856778
 H         2.229709         1.000936        -2.069411
 H         1.766360         2.079328        -0.807408
 H         4.581319         2.230460        -0.087874
 H         2.428340         0.458658         2.106774
