19
Iteration:   581
 C         4.415383        -1.755743         0.485799
 C         3.224489        -0.860917         0.331023
 O         2.061378        -1.420255        -0.381519
 C         1.382935         0.001855        -0.151284
 C        -0.228210         0.099009        -0.125177
 C         2.221098         0.975795        -0.935150
 C         3.303631         0.629206        -0.058646
 O         4.543561         1.192419         0.183818
 C         2.468844         0.331237         1.052572
 H         4.275179        -2.655864         1.146246
 H         4.632507        -2.117278        -0.533647
 H         5.393036        -1.351380         0.653726
 H        -0.735200        -0.463514         0.733327
 H        -0.404934         1.208155        -0.217833
 H        -0.686261        -0.446540        -0.985633
 H         2.202572         1.087502        -2.031269
 H         2.022458         2.067315        -0.701952
 H         4.229696         2.111246         0.382509
 H         2.663447         0.712342         1.996224
