19
Iteration:  2719
 C         4.101063        -1.763128         0.719142
 C         3.171519        -0.825752         0.245948
 O         2.036458        -1.295032        -0.474855
 C         1.398427         0.028739        -0.194958
 C        -0.046287        -0.151620         0.015589
 C         2.257327         1.069426        -0.920694
 C         3.447701         0.699148         0.030958
 O         4.674881         1.223794        -0.134611
 C         2.394793         0.266962         1.102746
 H         3.506195        -2.606324         1.077879
 H         4.698131        -2.177998        -0.087543
 H         4.848007        -1.480214         1.521342
 H        -0.204516        -0.915195         0.823211
 H        -0.553771         0.875273         0.270502
 H        -0.395856        -0.365786        -0.930627
 H         2.412875         0.860691        -2.007555
 H         1.750382         2.066822        -0.834973
 H         4.549862         2.133658         0.292698
 H         2.050450         0.427200         2.091270
