19
Iteration:  4104charge 0 multiplicity 1
 C         4.268632        -1.803922         0.680593
 C         3.214925        -0.890485         0.336974
 O         2.068669        -1.347128        -0.309653
 C         1.394342        -0.043169        -0.105164
 C        -0.132387        -0.021453        -0.105142
 C         2.158132         1.015973        -1.007855
 C         3.395706         0.642563        -0.142933
 O         4.644863         1.312406         0.019717
 C         2.420024         0.250082         0.994225
 H         3.722547        -2.592357         1.194026
 H         4.728463        -2.061003        -0.276087
 H         5.048846        -1.209308         1.232638
 H        -0.579537        -0.302750         0.864591
 H        -0.258067         1.116568        -0.004807
 H        -0.461848        -0.345332        -1.061509
 H         2.148659         0.840788        -2.120024
 H         1.769611         2.089389        -0.889149
 H         4.433514         2.180965         0.477507
 H         2.136352         0.597143         1.874196
