19
Iteration:  2419
 C         4.250281        -1.878069         0.748018
 C         3.186932        -0.906227         0.250555
 O         2.007107        -1.277314        -0.428475
 C         1.434948         0.088548        -0.032383
 C        -0.174032        -0.047702        -0.090902
 C         2.199453         1.072853        -0.949383
 C         3.367572         0.672437        -0.139327
 O         4.599753         1.226936         0.007262
 C         2.558807         0.267179         1.019393
 H         3.864917        -2.497712         1.530893
 H         4.812471        -2.423885        -0.012716
 H         4.983035        -1.198845         1.262291
 H        -0.457460        -0.833931         0.480424
 H        -0.699937         0.799327         0.229399
 H        -0.477849        -0.251492        -1.164327
 H         2.036463         0.757812        -2.029011
 H         1.911633         2.130896        -0.712317
 H         4.662655         2.176588        -0.183846
 H         2.499596         0.480715         2.124129
