19
Iteration:  4593
 C         4.289521        -1.647421         0.692240
 C         3.162533        -0.873665         0.274717
 O         2.041270        -1.354896        -0.475393
 C         1.382229        -0.031401        -0.030529
 C        -0.122059         0.119949        -0.043962
 C         2.197587         0.938313        -1.006480
 C         3.430327         0.552163        -0.093112
 O         4.558655         1.352043        -0.017667
 C         2.409140         0.179880         1.050592
 H         4.117133        -2.384965         1.547649
 H         4.718115        -2.110969        -0.135261
 H         5.108821        -0.970194         1.089319
 H        -0.608821        -0.871458         0.304579
 H        -0.388707         0.970974         0.603652
 H        -0.350920         0.275378        -1.039399
 H         2.003610         0.620028        -2.052249
 H         1.889122         2.006580        -0.825779
 H         5.160420         0.909422         0.639646
 H         2.486784         0.312111         2.086427
