19
Iteration:   120charge 0 multiplicity 1
 C         4.174589        -1.982062         0.706304
 C         3.254119        -0.868525         0.256666
 O         2.071564        -1.287185        -0.579501
 C         1.473437         0.045558        -0.154246
 C        -0.041210        -0.005277         0.117302
 C         2.212467         1.059648        -1.102451
 C         3.374643         0.654133        -0.052391
 O         4.497435         1.474644         0.147711
 C         2.382579         0.167954         1.051795
 H         3.769362        -2.844454         1.151667
 H         4.664632        -2.288686        -0.231337
 H         4.917217        -1.606192         1.358195
 H        -0.292653        -0.729954         0.881148
 H        -0.370909         1.000100         0.340501
 H        -0.595616        -0.308710        -0.716289
 H         2.264651         0.951911        -2.169130
 H         1.984159         2.072261        -0.788323
 H         5.279442         1.153755        -0.375608
 H         2.036836         0.318678         2.039311
