19
Iteration:  2328
 C         4.329195        -1.735070         0.635931
 C         3.187648        -0.796412         0.265405
 O         1.920600        -1.389306        -0.400612
 C         1.358924        -0.015194        -0.049992
 C        -0.138500         0.002562        -0.019223
 C         2.189909         1.025489        -1.112065
 C         3.385213         0.709553        -0.142996
 O         4.640996         1.145751         0.123834
 C         2.500050         0.324743         1.021944
 H         4.006640        -2.488148         1.414494
 H         4.945534        -2.182829        -0.167544
 H         5.091352        -1.182553         1.218143
 H        -0.596676        -0.726451         0.568578
 H        -0.345243         1.089864         0.190466
 H        -0.420466        -0.249917        -0.997093
 H         2.044550         0.617141        -2.150721
 H         1.884840         2.063209        -0.974486
 H         4.748038         2.055033         0.537688
 H         2.632752         0.271374         2.058966
