19
Iteration:  2153
 C         4.341834        -1.716297         0.593819
 C         3.222674        -0.840722         0.324723
 O         1.995198        -1.271575        -0.343298
 C         1.360986        -0.070169        -0.069501
 C        -0.117522         0.060854        -0.065859
 C         2.306614         1.002028        -1.060758
 C         3.335804         0.545814        -0.128251
 O         4.583116         1.190973         0.070540
 C         2.391537         0.261187         1.056469
 H         4.165667        -2.561707         1.329148
 H         4.680550        -2.224784        -0.323853
 H         5.191729        -1.141559         0.897936
 H        -0.577773        -0.414725         0.795571
 H        -0.333509         1.170405         0.095679
 H        -0.557198        -0.142014        -1.075667
 H         2.320982         0.782974        -2.180200
 H         1.746237         1.915510        -0.966385
 H         4.304713         2.104555         0.273982
 H         2.433162         0.444253         2.173157
