19
Iteration:  1134
 C         4.197830        -1.784385         0.638113
 C         3.232853        -0.804455         0.165601
 O         1.988962        -1.306910        -0.440848
 C         1.392474        -0.094222        -0.029310
 C        -0.039349        -0.042178        -0.138779
 C         2.116651         1.000512        -0.928984
 C         3.332120         0.762522        -0.088626
 O         4.677791         1.226712         0.093072
 C         2.516215         0.261956         1.092995
 H         3.786623        -2.571922         1.328471
 H         4.634028        -2.430671        -0.174851
 H         4.855354        -1.232539         1.263269
 H        -0.558849        -0.931259         0.222541
 H        -0.252837         0.875456         0.348809
 H        -0.264035         0.193487        -1.170819
 H         2.093335         0.647749        -1.935613
 H         1.716656         2.010408        -0.708101
 H         4.658961         2.206233         0.120270
 H         2.411299         0.479700         2.196831
