19
Iteration:  1097charge 0 multiplicity 1
 C         4.472652        -1.797785         0.651034
 C         3.125933        -0.890293         0.357772
 O         1.993532        -1.307011        -0.408163
 C         1.400906         0.105292        -0.100864
 C        -0.101303         0.047467        -0.166337
 C         2.233625         1.093726        -0.962042
 C         3.344310         0.613015        -0.000649
 O         4.579941         1.224180        -0.101746
 C         2.338750         0.100651         1.143258
 H         4.272566        -2.724346         1.148307
 H         5.094921        -1.818423        -0.286469
 H         5.180751        -1.123838         1.251775
 H        -0.549639        -0.951647         0.117115
 H        -0.482755         0.695521         0.654838
 H        -0.644319         0.239489        -1.145652
 H         2.391572         0.894202        -2.084182
 H         1.925156         2.121537        -0.909571
 H         4.674600         1.905690         0.611332
 H         1.910948         0.380062         2.190680
