19
Iteration:  4697
 C         4.231631        -1.810164         0.640184
 C         3.198336        -0.817674         0.290419
 O         1.961991        -1.286820        -0.377753
 C         1.429210        -0.000988        -0.186088
 C        -0.037996        -0.039787         0.037431
 C         2.225204         0.958726        -1.019782
 C         3.416580         0.595723        -0.125159
 O         4.541625         1.343053         0.165065
 C         2.413144         0.301611         0.969300
 H         3.913157        -2.717081         1.041513
 H         4.799409        -2.018658        -0.334989
 H         4.925895        -1.178642         1.230008
 H        -0.146348        -0.365068         1.049383
 H        -0.433845         0.999982        -0.047694
 H        -0.517287        -0.832117        -0.677394
 H         2.477138         0.747953        -2.109285
 H         1.739944         1.933456        -0.905798
 H         5.099689         1.231545        -0.664699
 H         2.295215         0.617856         2.013137
