19
Iteration:  3413
 C         4.267911        -1.793073         0.703836
 C         3.256171        -0.857608         0.283196
 O         1.996828        -1.219338        -0.395574
 C         1.361149        -0.009868        -0.087960
 C        -0.147312        -0.008029        -0.150639
 C         2.152206         0.934216        -0.980865
 C         3.398322         0.702231        -0.067822
 O         4.654716         1.201954         0.009282
 C         2.496207         0.296812         1.031716
 H         3.657368        -2.474069         1.338792
 H         4.700825        -2.397578        -0.129708
 H         5.149491        -1.435625         1.252802
 H        -0.500693        -0.515438         0.763202
 H        -0.578562         0.938306        -0.160200
 H        -0.484092        -0.739732        -0.970138
 H         2.329399         0.564664        -2.033069
 H         1.711648         1.983720        -0.850732
 H         4.525239         2.019583         0.550888
 H         2.384022         0.723640         2.096631
