19
Iteration:  3876
 C         4.267985        -1.664569         0.723326
 C         3.181240        -0.836528         0.332482
 O         2.121519        -1.375173        -0.384058
 C         1.403532        -0.033722        -0.129350
 C        -0.182134        -0.019543        -0.094032
 C         2.175810         0.976936        -0.951101
 C         3.340310         0.651976        -0.137861
 O         4.623905         1.150605        -0.053682
 C         2.451413         0.318465         1.059471
 H         3.815428        -2.547993         1.123318
 H         4.923311        -1.899643        -0.124762
 H         4.840790        -1.009069         1.433649
 H        -0.626419        -0.906397         0.343963
 H        -0.349812         1.028181         0.342300
 H        -0.633018         0.211886        -1.027655
 H         2.307882         1.011080        -2.010430
 H         1.829616         1.979101        -0.721113
 H         4.577637         1.990524         0.430655
 H         2.464707         0.569244         2.033543
