19
Iteration:  1988charge 0 multiplicity 1
 C         4.288160        -1.691431         0.569102
 C         3.088263        -0.789602         0.433111
 O         2.039031        -1.369703        -0.400400
 C         1.383125        -0.049925        -0.109852
 C        -0.090269         0.082481        -0.077439
 C         2.265761         0.934070        -1.013691
 C         3.389729         0.630864        -0.069303
 O         4.656250         1.282065        -0.024609
 C         2.362589         0.200949         1.124452
 H         4.133799        -2.612357         1.252679
 H         4.262804        -2.073565        -0.469182
 H         5.289085        -1.329036         0.740711
 H        -0.649619        -0.556215         0.795046
 H        -0.535855         1.080375        -0.004940
 H        -0.439790        -0.236402        -1.054473
 H         2.385930         0.728369        -2.134093
 H         1.993341         2.000609        -1.037791
 H         4.530548         1.774145         0.792552
 H         2.389524         0.378431         2.104002
