19
Iteration:  1588
 C         4.295981        -1.798084         0.614424
 C         3.251250        -0.806138         0.247678
 O         1.957719        -1.301205        -0.349242
 C         1.364478         0.026716        -0.088462
 C        -0.129545        -0.043817        -0.107181
 C         2.173891         1.055372        -1.014328
 C         3.326271         0.706192        -0.097344
 O         4.659349         1.151775         0.117836
 C         2.488766         0.218445         1.055805
 H         4.147340        -2.231000         1.646837
 H         4.596872        -2.234954        -0.352805
 H         5.257733        -1.297101         0.821825
 H        -0.566841        -0.450090         0.826784
 H        -0.614305         0.905165        -0.131173
 H        -0.412921        -0.595799        -1.079761
 H         2.273106         0.839456        -2.116527
 H         1.655353         1.982702        -1.021859
 H         4.748126         2.102878         0.140551
 H         2.519013         0.622023         2.106337
