19
Iteration:  4244charge 0 multiplicity 1
 C         4.338749        -1.769262         0.649832
 C         3.177347        -0.818566         0.433816
 O         1.985684        -1.390571        -0.357894
 C         1.469472        -0.046114        -0.147152
 C        -0.097049         0.073154        -0.067683
 C         2.326161         0.972571        -1.077197
 C         3.328259         0.651449        -0.057369
 O         4.517937         1.325251        -0.051435
 C         2.367762         0.202755         1.043253
 H         3.781874        -2.691010         0.891919
 H         4.890454        -1.767525        -0.286496
 H         5.126153        -1.447397         1.448293
 H        -0.512126        -0.769665         0.517188
 H        -0.460523         0.904705         0.627030
 H        -0.471338         0.095216        -1.077677
 H         2.445711         0.504338        -2.028264
 H         1.950530         2.005806        -1.110658
 H         4.660647         1.814884         0.797511
 H         2.329292         0.763449         1.896717
