19
Iteration:  4828
 C         4.133298        -1.869427         0.671328
 C         3.199700        -0.786888         0.329418
 O         2.055473        -1.283666        -0.460712
 C         1.429886         0.046453        -0.141548
 C        -0.114061        -0.169926        -0.031075
 C         2.146790         1.049759        -0.975559
 C         3.444903         0.713220        -0.100645
 O         4.614534         1.373356        -0.016177
 C         2.441792         0.243240         1.137384
 H         3.580875        -2.585735         1.234583
 H         4.654523        -2.275740        -0.245192
 H         4.776332        -1.463953         1.523391
 H        -0.310583        -1.059340         0.561129
 H        -0.383192         0.689891         0.585967
 H        -0.636919        -0.157061        -1.036134
 H         2.294687         0.864960        -2.077502
 H         2.015453         2.156465        -0.846453
 H         5.261978         0.808867        -0.453018
 H         2.567949         0.445264         2.168928
