19
Iteration:  2439charge 0 multiplicity 1
 C         4.239463        -1.736097         0.683655
 C         3.148559        -0.795871         0.346306
 O         1.990995        -1.316434        -0.416561
 C         1.396658         0.010484        -0.150807
 C        -0.071334        -0.030510        -0.043033
 C         2.224372         1.021184        -0.979489
 C         3.405003         0.622785        -0.047947
 O         4.718925         1.227825        -0.101148
 C         2.343497         0.182506         1.114672
 H         3.827864        -2.613882         1.155752
 H         4.626255        -1.962136        -0.323676
 H         5.084045        -1.294217         1.349066
 H        -0.426391        -0.762659         0.633780
 H        -0.404990         0.966662         0.353112
 H        -0.572428        -0.137898        -1.078221
 H         2.465575         0.903004        -2.085690
 H         1.810427         2.006734        -0.778984
 H         4.575733         2.112712         0.218750
 H         2.154883         0.462938         2.213989
