19
Iteration:  1755
 C         4.358498        -1.779286         0.750027
 C         3.141138        -0.867842         0.302509
 O         1.984460        -1.295912        -0.445800
 C         1.389628         0.070331        -0.118695
 C        -0.133000        -0.024804        -0.086744
 C         2.152058         1.036825        -0.965176
 C         3.393119         0.725794        -0.108722
 O         4.676091         1.168006         0.009535
 C         2.409746         0.172323         1.056163
 H         4.179023        -2.477305         1.506304
 H         4.712899        -2.267222        -0.238143
 H         5.287560        -1.143670         0.859157
 H        -0.432175        -0.545975         0.797632
 H        -0.613519         1.001529        -0.112523
 H        -0.340525        -0.460769        -1.087929
 H         1.976800         0.775386        -1.971886
 H         1.729683         2.083787        -0.840121
 H         4.623995         2.043041         0.399539
 H         2.503343         0.594841         2.173094
