19
Iteration:  2530charge 0 multiplicity 1
 C         4.217632        -1.877516         0.710991
 C         3.220259        -0.841348         0.336206
 O         2.059299        -1.207546        -0.434605
 C         1.406769         0.003634        -0.146807
 C        -0.048349         0.001652        -0.000571
 C         2.191299         0.980946        -1.012264
 C         3.357494         0.712301        -0.054086
 O         4.631671         1.255081        -0.075791
 C         2.373500         0.170468         1.110149
 H         3.827856        -2.713754         1.365058
 H         4.650446        -2.368643        -0.211434
 H         5.008061        -1.357555         1.198357
 H        -0.517692        -0.630807         0.758496
 H        -0.499859         0.951745         0.040309
 H        -0.404686        -0.346579        -0.978239
 H         2.447565         0.887942        -2.104929
 H         1.735397         2.024723        -0.905300
 H         4.505863         2.231242        -0.026932
 H         2.302922         0.323592         2.164968
