19
Iteration:  3097
 C         4.089685        -1.926092         0.786680
 C         3.247329        -0.787270         0.349478
 O         2.206259        -1.259617        -0.483748
 C         1.346748         0.028941        -0.118967
 C        -0.067073        -0.054600         0.064730
 C         2.171508         0.978990        -1.022073
 C         3.361162         0.735967        -0.069648
 O         4.659355         1.284092        -0.102725
 C         2.390137         0.232601         1.018187
 H         3.502659        -2.720356         1.212690
 H         4.662800        -2.346585        -0.014179
 H         4.875545        -1.606841         1.557779
 H        -0.487438        -0.916100         0.676450
 H        -0.439211         0.913312         0.378666
 H        -0.500775         0.093402        -1.038146
 H         2.370325         0.749405        -2.069056
 H         1.714416         1.956086        -0.973060
 H         4.651866         2.233589        -0.084935
 H         2.067770         0.316115         2.089945
