19
Iteration:   658charge 0 multiplicity 1
 C         4.219063        -1.900193         0.773737
 C         3.143404        -0.776720         0.346671
 O         2.063224        -1.214463        -0.591130
 C         1.467655         0.026919        -0.148474
 C        -0.022471        -0.144825         0.006497
 C         2.078007         1.135624        -0.902582
 C         3.437773         0.681706        -0.136337
 O         4.720125         1.245010        -0.013204
 C         2.335370         0.210568         1.045404
 H         3.583701        -2.814216         1.193705
 H         4.619711        -2.321742        -0.173541
 H         5.050229        -1.632510         1.420755
 H        -0.000829        -1.142172         0.565437
 H        -0.674517         0.659948         0.518814
 H        -0.606308        -0.251845        -0.908662
 H         1.880943         1.054781        -2.023931
 H         1.673776         2.127299        -0.495149
 H         4.581602         2.185748         0.114062
 H         2.193797         0.417909         2.087882
