19
Iteration:  1275charge 0 multiplicity 1
 C         4.328877        -1.680922         0.537338
 C         3.147663        -0.796714         0.326380
 O         2.035989        -1.315075        -0.453125
 C         1.387590         0.005247        -0.140133
 C        -0.097675        -0.017589        -0.113057
 C         2.243743         0.949624        -0.875658
 C         3.374010         0.714213         0.135895
 O         4.686011         1.165406        -0.082075
 C         2.282967         0.232002         1.159516
 H         3.873131        -2.598837         0.911211
 H         4.678918        -2.095632        -0.443743
 H         5.013139        -1.420190         1.277682
 H        -0.601636        -0.977723         0.183959
 H        -0.426582         0.877305         0.514692
 H        -0.585011         0.193300        -1.062410
 H         2.562144         0.552600        -1.811265
 H         1.967250         2.021238        -0.997549
 H         4.512369         2.141568        -0.072807
 H         2.182416         0.391316         2.161630
