19
Iteration:  4282charge 0 multiplicity 1
 C         4.286245        -1.750640         0.735756
 C         3.230184        -0.767932         0.310351
 O         2.010071        -1.339131        -0.418935
 C         1.311416         0.031135        -0.097949
 C        -0.149008        -0.059350        -0.041156
 C         2.223316         0.958227        -1.045817
 C         3.376641         0.742620        -0.076758
 O         4.665235         1.266296        -0.039394
 C         2.405481         0.212565         1.043885
 H         3.798000        -2.724850         0.880939
 H         4.891081        -1.983538        -0.177279
 H         4.864317        -1.591217         1.601577
 H        -0.447839        -0.720694         0.802544
 H        -0.547066         0.939057        -0.075466
 H        -0.597053        -0.571158        -0.939707
 H         2.537021         0.681307        -2.093754
 H         1.908344         2.017659        -1.108256
 H         4.817818         1.666844         0.851172
 H         2.488927         0.619465         2.106115
