19
Iteration:   695charge 0 multiplicity 1
 C         4.220477        -1.789830         0.657939
 C         3.283699        -0.777619         0.224857
 O         1.995773        -1.262182        -0.468796
 C         1.317734         0.000097        -0.082457
 C        -0.190143        -0.041176        -0.037770
 C         2.274916         1.013465        -0.954197
 C         3.421269         0.655189        -0.111754
 O         4.649154         1.337720         0.037663
 C         2.464738         0.103369         1.113344
 H         3.593298        -2.558873         1.008258
 H         4.880144        -2.117883        -0.093567
 H         4.781572        -1.508932         1.558377
 H        -0.428339        -1.081126         0.119365
 H        -0.547686         0.448274         0.900310
 H        -0.567036         0.054226        -1.098114
 H         2.312674         0.637881        -2.014476
 H         1.912503         2.023015        -0.951542
 H         4.382635         2.269309        -0.032999
 H         2.584138         0.232297         2.239233
