19
Iteration:  1257
 C         4.326896        -1.769777         0.542057
 C         3.147302        -0.840572         0.378879
 O         2.006610        -1.291416        -0.381511
 C         1.421567         0.020036        -0.102580
 C        -0.145601         0.029054        -0.146812
 C         2.343883         1.051510        -0.972153
 C         3.313200         0.674105         0.010784
 O         4.579088         1.202061        -0.054146
 C         2.379018         0.121108         1.187791
 H         4.216433        -2.796941         1.111361
 H         4.696395        -1.856541        -0.498160
 H         5.011328        -1.098078         1.196632
 H        -0.430227        -0.873149         0.376786
 H        -0.379751         1.043213         0.274565
 H        -0.455873        -0.279961        -1.143846
 H         2.609672         0.910820        -2.027550
 H         1.866762         2.087260        -0.841738
 H         4.694896         2.179130        -0.050898
 H         2.090993         0.246486         2.260844
