19
Iteration:  2988
 C         4.296157        -1.783943         0.536834
 C         3.173590        -0.802191         0.386397
 O         1.972331        -1.331629        -0.316061
 C         1.404262        -0.050013        -0.131926
 C        -0.147128         0.076042        -0.077579
 C         2.375896         0.908995        -1.038939
 C         3.358748         0.682197         0.002557
 O         4.636713         1.274699         0.029183
 C         2.348106         0.233243         1.014855
 H         4.279311        -2.540344         1.302542
 H         4.397073        -2.246939        -0.429644
 H         5.164986        -1.068284         0.720556
 H        -0.536858        -0.670134         0.690324
 H        -0.345332         1.010884         0.311978
 H        -0.698668        -0.290698        -1.014352
 H         2.530116         0.591200        -2.142799
 H         1.809467         1.860818        -0.898085
 H         4.570731         2.228172         0.123766
 H         2.100792         0.424707         2.084006
