19
Iteration:  2316
 C         4.344074        -1.684805         0.675538
 C         3.218050        -0.820956         0.153946
 O         1.904670        -1.326270        -0.285110
 C         1.423582        -0.038407        -0.090109
 C        -0.121025         0.033128        -0.093581
 C         2.147645         0.996135        -1.031639
 C         3.327561         0.712201        -0.184089
 O         4.677446         1.111427         0.150000
 C         2.512760         0.221811         0.992737
 H         3.918070        -2.642349         1.162485
 H         4.870555        -2.073088        -0.237319
 H         4.960765        -1.036291         1.274520
 H        -0.444398        -0.655108         0.717633
 H        -0.637864         0.964815         0.300412
 H        -0.557790        -0.128259        -1.004380
 H         2.432939         0.905752        -2.092945
 H         1.607373         1.932259        -0.880256
 H         4.553073         2.035308         0.341706
 H         2.483747         0.658592         1.967523
