19
Iteration:   183
 C         4.296198        -1.846898         0.697908
 C         3.190949        -0.772481         0.276762
 O         2.075334        -1.241998        -0.537323
 C         1.397209        -0.016185        -0.119128
 C        -0.121428        -0.022207        -0.111945
 C         2.153453         1.040304        -0.927439
 C         3.308873         0.819558         0.033482
 O         4.591484         1.206708         0.074890
 C         2.506647         0.184122         1.118566
 H         3.874950        -2.688281         1.294709
 H         4.663644        -2.197673        -0.393542
 H         5.165640        -1.394936         1.134140
 H        -0.536851        -0.876767         0.540838
 H        -0.533005         0.989123         0.381998
 H        -0.501083        -0.195638        -1.118475
 H         2.343699         0.600236        -1.957574
 H         1.565179         1.947613        -0.951931
 H         5.058288         0.963273        -0.774967
 H         2.180329         0.356535         2.090829
