19
Iteration:  3479
 C         4.217719        -1.750287         0.806670
 C         3.230578        -0.834872         0.222549
 O         2.109152        -1.261784        -0.462145
 C         1.434019        -0.032724        -0.094689
 C        -0.136707         0.053556         0.055017
 C         2.222190         0.945510        -1.081929
 C         3.326736         0.696470        -0.131823
 O         4.602340         1.225148         0.021818
 C         2.438737         0.195987         1.020971
 H         3.585612        -2.501714         1.361348
 H         4.657132        -2.360152        -0.021194
 H         4.879842        -1.354937         1.543884
 H        -0.506173        -0.932252         0.424145
 H        -0.455724         0.876175         0.637210
 H        -0.627470         0.046743        -1.010772
 H         2.378629         0.554228        -2.121543
 H         1.889733         2.017310        -1.187345
 H         4.538149         2.165453         0.196852
 H         2.215599         0.355446         2.115447
