19
Iteration:   828
 C         4.176646        -1.911815         0.647927
 C         3.166802        -0.822715         0.338094
 O         2.124797        -1.228122        -0.512696
 C         1.371086        -0.025914        -0.161790
 C        -0.106096        -0.110099        -0.085454
 C         2.164302         1.103261        -0.890285
 C         3.350900         0.761196        -0.033573
 O         4.649680         1.299106        -0.053982
 C         2.516546         0.177332         1.123273
 H         3.807953        -2.592629         1.303860
 H         4.532686        -2.399866        -0.280407
 H         4.938007        -1.365196         1.219238
 H        -0.337677        -0.558329         0.913617
 H        -0.588996         0.844237        -0.077801
 H        -0.537236        -0.672180        -0.976145
 H         2.214683         0.912371        -1.985043
 H         1.679452         2.005046        -0.530524
 H         4.619796         2.124600         0.462648
 H         2.336094         0.080088         2.208943
