19
Iteration:  1942charge 0 multiplicity 1
 C         4.281787        -1.760668         0.575803
 C         3.226495        -0.794134         0.366049
 O         2.012574        -1.266025        -0.336811
 C         1.367390         0.026631        -0.052893
 C        -0.177930        -0.063556        -0.143908
 C         2.200375         1.028554        -1.040348
 C         3.401033         0.613078        -0.127643
 O         4.623560         1.162459         0.097017
 C         2.487790         0.241921         1.073197
 H         3.905513        -2.527439         1.217126
 H         4.585300        -2.090245        -0.416521
 H         5.136520        -1.226967         1.044686
 H        -0.542915        -0.782729         0.702491
 H        -0.636716         0.894893         0.118098
 H        -0.467338        -0.267349        -1.163094
 H         2.083073         0.973855        -2.120858
 H         1.972026         2.126799        -0.862354
 H         4.591164         2.076538        -0.170587
 H         2.485365         0.534644         2.151722
