19
Iteration:  3164charge 0 multiplicity 1
 C         4.315932        -1.700887         0.674935
 C         3.198114        -0.832741         0.317142
 O         2.048078        -1.310945        -0.380748
 C         1.405634        -0.019394        -0.120036
 C        -0.144933         0.049038        -0.091074
 C         2.169924         0.899086        -0.999630
 C         3.364645         0.636403        -0.067432
 O         4.628062         1.173130         0.002538
 C         2.401353         0.284734         1.029428
 H         4.217240        -2.452743         1.491324
 H         4.575217        -2.197891        -0.270945
 H         5.245758        -1.158332         0.905625
 H        -0.611017        -0.409825         0.806643
 H        -0.486398         1.125619        -0.054864
 H        -0.603407        -0.075152        -1.146157
 H         2.379521         0.770404        -2.094289
 H         1.700469         1.845784        -0.770334
 H         4.630035         1.861638         0.718695
 H         2.338424         0.655227         2.003036
