19
Iteration:   689charge 0 multiplicity 1
 C         4.187229        -1.772332         0.692957
 C         3.247547        -0.744529         0.152691
 O         1.997099        -1.267003        -0.450220
 C         1.402963        -0.006574        -0.085556
 C        -0.187456        -0.087928        -0.037338
 C         2.300071         1.066274        -0.973592
 C         3.394875         0.676103        -0.092098
 O         4.611769         1.295562         0.041925
 C         2.507076         0.092382         1.112835
 H         3.408293        -2.583952         0.995840
 H         4.830427        -2.256079        -0.128620
 H         4.694303        -1.519642         1.640148
 H        -0.400873        -1.165458         0.228966
 H        -0.671437         0.345244         0.830587
 H        -0.620621         0.033808        -1.022981
 H         2.418591         0.763657        -2.009663
 H         1.914040         2.094177        -0.712673
 H         4.397267         2.248723        -0.138661
 H         2.795913         0.469639         2.066780
