19
Iteration:   895charge 0 multiplicity 1
 C         4.330821        -1.757314         0.557397
 C         3.238085        -0.799713         0.307587
 O         2.103817        -1.327136        -0.455354
 C         1.413173        -0.081241        -0.158788
 C        -0.105200         0.066434         0.011453
 C         2.253963         1.004574        -0.985577
 C         3.338587         0.703947        -0.077197
 O         4.619676         1.206984         0.054249
 C         2.235393         0.168303         1.087975
 H         3.915064        -2.664493         1.001773
 H         4.891365        -2.110482        -0.368096
 H         4.940575        -1.412212         1.377688
 H        -0.473578        -0.961398         0.410540
 H        -0.506455         0.671885         0.883133
 H        -0.592549         0.559910        -0.854026
 H         2.490392         0.823373        -2.060901
 H         1.696671         1.984837        -0.750274
 H         4.543434         2.148115         0.293809
 H         1.798910         0.778868         2.024257
