19
Iteration:  3019
 C         4.334009        -1.723433         0.600222
 C         3.173428        -0.840027         0.369645
 O         2.070169        -1.294677        -0.419830
 C         1.404142        -0.022047        -0.037201
 C        -0.107142         0.072514        -0.128645
 C         2.219754         0.962033        -1.046013
 C         3.302323         0.686872        -0.042421
 O         4.569936         1.086466         0.030353
 C         2.433408         0.288866         1.086067
 H         4.280171        -2.486226         1.361205
 H         4.702729        -2.121146        -0.345768
 H         5.130531        -1.000994         0.875082
 H        -0.573126        -0.379759         0.794065
 H        -0.464080         1.076310        -0.028770
 H        -0.543560        -0.491955        -1.105530
 H         2.221122         0.593291        -2.057932
 H         1.677839         1.885322        -0.897234
 H         4.718280         2.003209         0.379971
 H         2.221015         0.710729         2.097531
