19
Iteration:   845charge 0 multiplicity 1
 C         4.211563        -1.824595         0.701942
 C         3.311915        -0.819163         0.146928
 O         2.009885        -1.261154        -0.543705
 C         1.423565         0.046913         0.035581
 C        -0.099167        -0.094418        -0.065337
 C         2.193289         1.053516        -0.902108
 C         3.371197         0.628763        -0.011790
 O         4.571031         1.319843        -0.032105
 C         2.433039         0.151794         1.104485
 H         3.504071        -2.677853         1.091150
 H         4.764007        -2.423930        -0.030128
 H         5.058548        -1.436515         1.339097
 H        -0.493457        -0.834947         0.599473
 H        -0.569201         0.924061        -0.033260
 H        -0.242241        -0.340934        -1.116377
 H         2.229447         0.924597        -2.004838
 H         2.023146         2.144938        -0.864240
 H         4.431437         2.125212         0.483304
 H         2.586095         0.507532         2.087082
