19
Iteration:   942charge 0 multiplicity 1
 C         4.335574        -1.710239         0.559169
 C         3.165062        -0.883608         0.194192
 O         1.892327        -1.284132        -0.338775
 C         1.375843         0.022134        -0.126521
 C        -0.172570        -0.142747        -0.125496
 C         2.243961         1.077186        -0.931801
 C         3.402755         0.672525        -0.022436
 O         4.717440         1.243439         0.089121
 C         2.432033         0.177280         1.042787
 H         4.118077        -2.587539         1.295805
 H         4.795224        -2.198934        -0.276104
 H         5.107349        -1.115918         1.060987
 H        -0.509786        -0.916400         0.541433
 H        -0.697543         0.817862         0.223074
 H        -0.427419        -0.112412        -1.162264
 H         2.260425         0.973743        -2.034654
 H         2.019503         2.140416        -0.622695
 H         4.570997         2.156413         0.348492
 H         2.344723         0.501651         2.002440
