19
Iteration:   807charge 0 multiplicity 1
 C         4.239976        -1.848354         0.567377
 C         3.143702        -0.790106         0.299267
 O         2.069390        -1.328922        -0.479998
 C         1.422133        -0.010704        -0.157892
 C        -0.054546        -0.149199        -0.031341
 C         2.189077         1.153466        -0.887272
 C         3.395315         0.700605         0.025463
 O         4.703558         1.273809         0.000791
 C         2.319137         0.228222         1.069659
 H         3.915944        -2.481123         1.312133
 H         4.125729        -2.337476        -0.426551
 H         5.226258        -1.546787         0.826215
 H        -0.479923        -0.387440         0.978368
 H        -0.586211         0.758246        -0.267039
 H        -0.405380        -0.958590        -0.741650
 H         2.304297         0.991596        -1.932974
 H         1.791775         2.092713        -0.467154
 H         4.751220         2.206747         0.233008
 H         1.871240         0.699088         1.986307
