19
Iteration:  4929charge 0 multiplicity 1
 C         4.254500        -1.789065         0.473534
 C         3.120642        -0.842463         0.333825
 O         1.994166        -1.280513        -0.338542
 C         1.397771        -0.023315        -0.055478
 C        -0.096630        -0.085821        -0.125713
 C         2.303228         1.032120        -1.014380
 C         3.377745         0.615548        -0.083964
 O         4.591022         1.266328         0.151188
 C         2.430127         0.385384         1.094606
 H         3.951334        -2.622924         1.145169
 H         4.586718        -2.294836        -0.459554
 H         5.061361        -1.252877         1.080831
 H        -0.462432        -0.864782         0.667627
 H        -0.547118         0.920006         0.044491
 H        -0.384186        -0.525370        -1.041029
 H         2.139045         0.818003        -2.090330
 H         2.088873         2.125342        -0.761119
 H         5.056262         1.271756        -0.747373
 H         2.425539         0.712201         2.161186
