19
Iteration:  1214
 C         4.261928        -1.840690         0.647954
 C         3.220691        -0.772652         0.146354
 O         2.050038        -1.280748        -0.408310
 C         1.378059        -0.035407        -0.084055
 C        -0.173255        -0.034820        -0.029664
 C         2.190040         1.079578        -1.021436
 C         3.311936         0.671816        -0.109588
 O         4.647639         1.233316         0.150889
 C         2.519061         0.215906         0.991412
 H         3.603358        -2.429885         1.375487
 H         4.695739        -2.390211        -0.170505
 H         5.201241        -1.398572         1.115794
 H        -0.642436        -0.263133         0.921220
 H        -0.396542         1.034193        -0.273044
 H        -0.461772        -0.787566        -0.788485
 H         2.272366         0.846126        -2.107254
 H         1.622952         2.043909        -0.944556
 H         4.592612         1.854517         0.895956
 H         2.582754         0.408051         2.058092
