19
Iteration:  4308
 C         4.184678        -1.754768         0.736226
 C         3.158661        -0.889454         0.264882
 O         1.999656        -1.242739        -0.436238
 C         1.378915         0.022839        -0.062657
 C        -0.038793        -0.155761        -0.045555
 C         2.183044         1.077136        -0.988153
 C         3.433208         0.627083        -0.155404
 O         4.640806         1.236927        -0.009707
 C         2.480664         0.225986         1.020472
 H         4.017610        -2.489608         1.520297
 H         4.931716        -2.107047         0.086386
 H         4.677577        -0.971425         1.446564
 H        -0.533223        -0.450277         0.864334
 H        -0.523771         0.835984        -0.270626
 H        -0.311798        -0.806523        -0.864975
 H         2.239869         1.073116        -2.081874
 H         1.885732         2.085558        -0.700585
 H         4.467689         2.169194         0.329106
 H         2.270100         0.474859         2.019774
