19
Iteration:  1151
 C         4.202635        -1.862809         0.676043
 C         3.234276        -0.830860         0.274365
 O         2.071924        -1.277655        -0.455888
 C         1.405857         0.068677        -0.129853
 C        -0.069932        -0.051902        -0.029494
 C         2.176322         1.072273        -1.024764
 C         3.387164         0.727856        -0.055816
 O         4.615965         1.257382         0.077925
 C         2.416950         0.153240         1.064728
 H         3.623550        -2.530222         1.287598
 H         4.486516        -2.437180        -0.246225
 H         5.187480        -1.511831         1.102526
 H        -0.248702        -0.854695         0.732973
 H        -0.748737         0.747889         0.359907
 H        -0.481089        -0.221545        -1.079048
 H         2.295765         0.873298        -2.152033
 H         1.712122         2.053388        -0.943446
 H         4.485832         2.219961        -0.082198
 H         2.378916         0.233723         2.224922
