19
Iteration:  3983charge 0 multiplicity 1
 C         4.145636        -1.785844         0.749105
 C         3.135109        -0.833638         0.315402
 O         2.082530        -1.208454        -0.485719
 C         1.457677        -0.044017        -0.105595
 C        -0.182638        -0.149212        -0.096267
 C         2.291273         1.011040        -0.964332
 C         3.360631         0.679093         0.016293
 O         4.668839         1.270586        -0.152641
 C         2.435715         0.248631         1.146070
 H         3.913007        -2.230490         1.713641
 H         4.407638        -2.473087        -0.115806
 H         5.030242        -1.027409         0.960997
 H        -0.570594        -0.677372         0.763152
 H        -0.727238         0.846771         0.080733
 H        -0.360901        -0.679482        -1.048360
 H         2.446759         0.628857        -2.026836
 H         1.795912         2.026472        -0.708392
 H         4.551161         2.156194         0.174115
 H         2.507238         0.486702         2.143442
