19
Iteration:  2587
 C         4.252266        -1.871837         0.772799
 C         3.174895        -0.794016         0.204089
 O         1.886355        -1.334412        -0.431048
 C         1.380115         0.064952        -0.157642
 C        -0.070275        -0.101468        -0.046587
 C         2.100660         1.074152        -0.942377
 C         3.413629         0.701734        -0.146707
 O         4.689609         1.238530         0.053818
 C         2.567478         0.275328         1.000913
 H         3.937687        -2.160126         1.814476
 H         4.459845        -2.671042         0.052872
 H         5.151479        -1.262627         0.940955
 H        -0.337373        -1.099828         0.471592
 H        -0.499980         0.841446         0.366847
 H        -0.377200        -0.310042        -1.026665
 H         2.253389         0.800245        -2.043837
 H         1.972296         2.204779        -0.719061
 H         4.645620         2.195164         0.297089
 H         2.482058         0.372614         2.120124
