19
Iteration:  3090
 C         4.153431        -1.945051         0.793128
 C         3.212111        -0.792266         0.359311
 O         2.215878        -1.207612        -0.478681
 C         1.429805         0.005138        -0.141532
 C        -0.080830        -0.004333         0.021260
 C         2.179577         0.996640        -0.996037
 C         3.331593         0.739279        -0.087287
 O         4.613188         1.242729        -0.127242
 C         2.363237         0.219901         1.039067
 H         3.415446        -2.638999         1.298237
 H         4.780866        -2.452480         0.007575
 H         4.812325        -1.639133         1.587395
 H        -0.305830        -0.882641         0.651495
 H        -0.669437         0.867936         0.569559
 H        -0.486166        -0.260662        -0.947509
 H         2.189122         0.703399        -2.134508
 H         1.870725         2.073011        -0.768852
 H         4.655399         2.226371        -0.026298
 H         2.146659         0.377975         2.051787
