19
Iteration:  2801charge 0 multiplicity 1
 C         4.371846        -1.849945         0.575214
 C         3.140223        -0.808489         0.309101
 O         2.006693        -1.350972        -0.335971
 C         1.368753         0.041428        -0.128753
 C        -0.096800         0.073821        -0.102371
 C         2.260653         0.956979        -1.009790
 C         3.343600         0.634870        -0.059615
 O         4.606025         1.292281         0.038972
 C         2.367783         0.228525         1.082358
 H         4.279652        -2.539691         1.473594
 H         4.687169        -2.445100        -0.320239
 H         5.223422        -1.190789         0.753813
 H        -0.547637        -0.732434         0.499482
 H        -0.450368         0.987423         0.246313
 H        -0.511959        -0.154592        -1.186297
 H         2.164196         0.564690        -2.093311
 H         1.961514         2.061116        -0.930449
 H         4.755996         2.037295         0.648034
 H         2.289703         0.586172         2.128494
