19
Iteration:  3883
 C         4.300634        -1.666569         0.690557
 C         3.108506        -0.788185         0.376397
 O         2.091441        -1.388609        -0.391523
 C         1.424678        -0.055693        -0.174400
 C        -0.188019         0.023794        -0.044926
 C         2.228719         0.983240        -1.022586
 C         3.348620         0.653415        -0.076517
 O         4.585758         1.174704        -0.057830
 C         2.486310         0.259464         1.047608
 H         4.066370        -2.642163         1.233472
 H         4.863709        -1.906010        -0.231666
 H         4.868813        -1.101817         1.528349
 H        -0.706339        -0.819654         0.414101
 H        -0.407301         0.967679         0.474000
 H        -0.460714        -0.062766        -1.194328
 H         2.424101         0.959245        -2.171006
 H         1.690906         1.927945        -0.602571
 H         4.797893         1.954803         0.523803
 H         2.246143         0.784353         2.114709
