19
Iteration:  3236
 C         4.180976        -1.825111         0.719248
 C         3.211740        -0.774829         0.332045
 O         2.036808        -1.292466        -0.359628
 C         1.394496        -0.025125        -0.062899
 C        -0.120352        -0.062321        -0.118885
 C         2.186814         1.021093        -1.005965
 C         3.400471         0.697119        -0.119590
 O         4.647260         1.229605         0.031681
 C         2.478472         0.234282         0.989209
 H         3.734388        -2.528522         1.409274
 H         4.495488        -2.274319        -0.251535
 H         5.111261        -1.434128         1.298153
 H        -0.313246        -0.671444         0.760618
 H        -0.548660         0.895888         0.002691
 H        -0.421018        -0.449476        -1.122002
 H         2.095382         0.848849        -2.114002
 H         1.962805         2.163656        -0.784059
 H         4.562196         2.140137        -0.276545
 H         2.319847         0.693618         1.989459
