19
Iteration:   905
 C         4.298009        -1.701538         0.552509
 C         3.226911        -0.758740         0.299386
 O         2.117551        -1.204194        -0.466346
 C         1.409298        -0.052837        -0.107067
 C        -0.045900         0.018252        -0.001052
 C         2.213870         0.927487        -1.012705
 C         3.325125         0.626015         0.042697
 O         4.586169         1.137172         0.047477
 C         2.285978         0.182700         1.066746
 H         3.824387        -2.555732         0.934960
 H         4.743472        -1.886661        -0.486343
 H         5.063911        -1.266271         1.210554
 H        -0.621918        -0.977086         0.127248
 H        -0.120600         0.732344         0.829924
 H        -0.564756         0.353504        -0.936951
 H         2.385318         0.605435        -2.059685
 H         1.784518         1.985272        -0.952851
 H         4.559650         2.050924         0.335759
 H         1.862820         0.691802         2.073510
