19
Iteration:   423charge 0 multiplicity 1
 C         4.292797        -1.797166         0.500806
 C         3.237947        -0.708465         0.296679
 O         2.015878        -1.423658        -0.386435
 C         1.400215        -0.038890        -0.084222
 C        -0.093967        -0.009939        -0.090725
 C         2.215878         1.044502        -0.968069
 C         3.358181         0.688959        -0.119471
 O         4.587640         1.212156         0.179902
 C         2.450759         0.278507         1.023469
 H         3.697316        -2.446530         1.164277
 H         4.517370        -2.266305        -0.533561
 H         5.203475        -1.394867         0.972822
 H        -0.481899        -0.627164         0.711460
 H        -0.307335         1.082638         0.033383
 H        -0.558326        -0.319728        -0.983284
 H         2.205802         0.790173        -2.061308
 H         1.724340         2.002405        -0.751825
 H         4.448616         2.164114         0.435722
 H         2.288210         0.466283         2.078843
