19
Iteration:  2011charge 0 multiplicity 1
 C         4.334596        -1.841696         0.638726
 C         3.164219        -0.862421         0.283838
 O         2.052858        -1.295686        -0.425508
 C         1.402251        -0.018207        -0.168389
 C        -0.091866         0.078123        -0.030294
 C         2.253569         0.949905        -1.003010
 C         3.330926         0.699655         0.017889
 O         4.565003         1.255086        -0.031422
 C         2.386691         0.224537         1.051615
 H         4.017185        -2.491453         1.573016
 H         4.842665        -2.448690        -0.131321
 H         5.123066        -1.281476         1.139008
 H        -0.417933        -0.563368         0.915255
 H        -0.526437         1.077022         0.203247
 H        -0.735331        -0.189930        -0.911499
 H         2.307129         0.743755        -2.127141
 H         2.074973         2.023755        -0.966342
 H         4.677507         2.008847         0.569692
 H         2.117326         0.572004         2.013798
