19
Iteration:   611charge 0 multiplicity 1
 C         4.334208        -1.735408         0.617046
 C         3.140752        -0.811575         0.238494
 O         1.904819        -1.286160        -0.495915
 C         1.442318         0.032072        -0.101679
 C        -0.032325        -0.007254        -0.074137
 C         2.151297         0.993916        -0.974369
 C         3.350169         0.683165        -0.015772
 O         4.670239         1.262304         0.085653
 C         2.428801         0.073284         1.112631
 H         4.134679        -2.439831         1.405849
 H         4.637772        -2.355832        -0.333049
 H         5.213027        -1.032958         0.888409
 H        -0.443756        -0.397162         0.832982
 H        -0.461552         0.896450        -0.345485
 H        -0.391392        -0.641471        -0.907624
 H         2.247195         0.720909        -2.033529
 H         1.902908         2.068224        -0.812531
 H         4.455198         2.122899         0.511172
 H         2.450428         0.263663         2.189684
