19
Iteration:   778
 C         4.348107        -1.715161         0.571608
 C         3.143894        -0.838553         0.280217
 O         1.944498        -1.168639        -0.499563
 C         1.349559         0.028516        -0.105435
 C        -0.121315        -0.136882        -0.070854
 C         2.204210         1.024462        -1.044212
 C         3.346561         0.625987        -0.034716
 O         4.626026         1.207846         0.178336
 C         2.564255         0.168159         1.138278
 H         4.112200        -2.614105         1.371086
 H         4.370794        -2.384087        -0.327964
 H         5.251115        -1.084671         0.629624
 H        -0.380263        -0.412016         0.979811
 H        -0.628592         0.827097        -0.403438
 H        -0.468596        -0.674330        -0.916991
 H         2.218739         0.579883        -2.078895
 H         1.832237         2.108845        -1.032684
 H         4.551531         2.180411         0.359949
 H         2.718377         0.530906         2.204377
