19
Iteration:  4260charge 0 multiplicity 1
 C         4.246067        -1.757848         0.621228
 C         3.133183        -0.847094         0.414007
 O         2.121622        -1.316459        -0.391093
 C         1.395584        -0.008210        -0.178231
 C        -0.008818         0.038441        -0.055731
 C         2.211541         0.837811        -1.045698
 C         3.327817         0.585991        -0.048080
 O         4.582135         1.323179        -0.054596
 C         2.359268         0.379730         1.100370
 H         4.116244        -2.832205         0.848832
 H         4.864526        -1.775950        -0.322802
 H         4.816229        -1.558489         1.467826
 H        -0.394922        -0.809011         0.592078
 H        -0.214337         1.014059         0.334689
 H        -0.601747        -0.039574        -1.015364
 H         2.275280         0.622236        -2.165128
 H         1.874657         1.879900        -0.858515
 H         4.767764         1.691228         0.813558
 H         1.992224         0.519971         2.195727
