19
Iteration:   327charge 0 multiplicity 1
 C         4.142846        -1.796230         0.667131
 C         3.211825        -0.789460         0.183462
 O         2.152895        -1.214348        -0.562647
 C         1.422773        -0.016120        -0.041203
 C        -0.126681        -0.047025         0.005293
 C         2.105842         1.009619        -0.940603
 C         3.404906         0.658329        -0.153447
 O         4.642096         1.208893         0.091889
 C         2.474881         0.167622         1.097553
 H         3.502437        -2.321907         1.274670
 H         4.791507        -2.365898        -0.028040
 H         4.768824        -1.239405         1.358523
 H        -0.493675        -0.892094         0.605632
 H        -0.601262         0.893506         0.390084
 H        -0.529439        -0.269122        -1.064159
 H         2.081034         0.911240        -2.021927
 H         1.820507         2.052280        -0.624197
 H         4.603280         2.195262         0.086213
 H         2.441126         0.443050         2.189036
