19
Iteration:  3070charge 0 multiplicity 1
 C         4.179465        -1.801604         0.825435
 C         3.193591        -0.843486         0.329460
 O         2.002779        -1.272851        -0.517056
 C         1.356136         0.048851        -0.163655
 C        -0.033860        -0.139425        -0.043872
 C         2.222615         1.093242        -0.939212
 C         3.371664         0.605929        -0.070256
 O         4.638861         1.236152        -0.132349
 C         2.467281         0.249407         1.107954
 H         3.692322        -2.664441         1.365375
 H         4.837974        -2.140920        -0.032553
 H         4.909803        -1.404752         1.471729
 H        -0.384925        -0.731877         0.747275
 H        -0.441770         0.914806         0.151902
 H        -0.452129        -0.256722        -0.975004
 H         2.397125         0.996889        -2.034153
 H         1.881655         2.113596        -0.648201
 H         4.508916         2.130572         0.145716
 H         2.433695         0.633759         2.096544
