19
Iteration:  4128charge 0 multiplicity 1
 C         4.326536        -1.851809         0.785202
 C         3.228691        -0.781870         0.275002
 O         1.985722        -1.262690        -0.453554
 C         1.383604         0.049169        -0.118318
 C        -0.139016        -0.108085        -0.123305
 C         2.168618         0.998372        -1.025618
 C         3.367171         0.696834        -0.073380
 O         4.585968         1.190683         0.011767
 C         2.555280         0.316275         1.086642
 H         3.668513        -2.355276         1.558785
 H         4.538872        -2.446958        -0.154873
 H         5.218725        -1.329519         1.057992
 H        -0.377438        -0.492179         0.926986
 H        -0.733263         0.803275        -0.247019
 H        -0.115846        -0.802536        -0.933893
 H         1.888547         0.923643        -2.129490
 H         1.651971         1.984054        -0.742568
 H         4.523954         2.106763         0.348649
 H         2.632294         0.497342         2.163925
