19
Iteration:  1468
 C         4.317443        -1.675868         0.638848
 C         3.166254        -0.789669         0.309686
 O         2.020495        -1.285363        -0.478336
 C         1.370407         0.006903        -0.198705
 C        -0.146992        -0.056912        -0.001289
 C         2.340673         1.035673        -0.968403
 C         3.355325         0.637274        -0.009064
 O         4.647878         1.126648        -0.039546
 C         2.353351         0.193635         1.150914
 H         3.885696        -2.575395         1.236408
 H         4.938301        -1.861002        -0.348102
 H         4.923442        -1.232324         1.454078
 H        -0.707843        -0.832427         0.522456
 H        -0.484883         0.827521         0.481559
 H        -0.699684        -0.090404        -0.995588
 H         2.501001         0.971568        -2.089786
 H         1.915195         1.987947        -0.786415
 H         4.701997         2.113035         0.072710
 H         1.990233         0.573313         2.129618
