19
Iteration:  4416
 C         4.315889        -1.712194         0.645813
 C         3.137293        -0.778334         0.273940
 O         1.982894        -1.394301        -0.318650
 C         1.423645        -0.026765        -0.136902
 C        -0.047292         0.031831        -0.073812
 C         2.210885         0.887691        -1.089122
 C         3.354818         0.678196        -0.076765
 O         4.602751         1.253985         0.082226
 C         2.430055         0.332458         0.996042
 H         3.921952        -2.546098         1.129653
 H         4.702818        -2.113633        -0.232763
 H         5.190545        -1.240029         1.154740
 H        -0.277995        -0.914451         0.312155
 H        -0.358496         0.827968         0.622688
 H        -0.516449         0.098499        -1.045583
 H         2.181944         0.528598        -2.146869
 H         1.654761         1.828734        -0.969313
 H         4.664285         1.788261         0.880410
 H         2.293029         0.594983         2.065519
