19
Iteration:  2416charge 0 multiplicity 1
 C         4.248875        -1.878257         0.768011
 C         3.200913        -0.903380         0.222587
 O         2.001905        -1.252824        -0.426652
 C         1.401729         0.093699        -0.030989
 C        -0.151574        -0.072904        -0.107181
 C         2.174144         1.067479        -0.942251
 C         3.387625         0.658161        -0.145509
 O         4.593263         1.224643         0.021852
 C         2.597269         0.262305         1.022878
 H         3.815426        -2.522709         1.552263
 H         4.724798        -2.458572        -0.048410
 H         5.032109        -1.184623         1.264750
 H        -0.577998        -0.861424         0.585917
 H        -0.681786         0.896652         0.262390
 H        -0.468339        -0.199729        -1.172271
 H         2.128782         0.812897        -2.044186
 H         1.841160         2.076983        -0.772235
 H         4.602348         2.194671        -0.245934
 H         2.487317         0.532465         2.101685
