19
Iteration:   568charge 0 multiplicity 1
 C         4.385303        -1.778035         0.427634
 C         3.213666        -0.799728         0.372151
 O         2.039254        -1.332374        -0.347990
 C         1.372218        -0.061117        -0.175774
 C        -0.104157         0.080321        -0.128719
 C         2.210399         0.974597        -1.044246
 C         3.320699         0.663484         0.016504
 O         4.571901         1.222289         0.121241
 C         2.392351         0.220618         1.157446
 H         4.089375        -2.631860         0.995859
 H         4.488606        -2.128364        -0.646902
 H         5.301933        -1.289447         0.868482
 H        -0.454292        -0.504932         0.716301
 H        -0.415696         1.069547         0.044727
 H        -0.588859        -0.236348        -1.087358
 H         2.336955         0.655963        -2.063660
 H         1.735452         1.972617        -0.863668
 H         4.646507         2.111771         0.481963
 H         2.326347         0.697469         2.148915
