19
Iteration:  2117
 C         4.340470        -1.814341         0.646847
 C         3.141131        -0.808910         0.308619
 O         1.991601        -1.307206        -0.333387
 C         1.377126         0.028527        -0.047299
 C        -0.155322         0.009465        -0.113926
 C         2.166993         1.053903        -1.044963
 C         3.423729         0.689139        -0.091092
 O         4.699961         1.196469        -0.020607
 C         2.410564         0.214984         1.085684
 H         3.967751        -2.622221         1.344420
 H         4.789489        -2.179778        -0.336788
 H         5.077648        -1.216170         1.265550
 H        -0.666047        -0.830573         0.556664
 H        -0.515127         0.994816         0.070731
 H        -0.347883        -0.330367        -1.098161
 H         2.364312         0.671320        -2.074082
 H         1.669625         2.087114        -0.901739
 H         4.506248         2.129010         0.245318
 H         2.366206         0.158167         2.126030
