19
Iteration:  4276
 C         4.270757        -1.782155         0.674675
 C         3.207338        -0.787514         0.352024
 O         2.054622        -1.311400        -0.409801
 C         1.385782        -0.023093        -0.090272
 C        -0.189486        -0.047835        -0.026016
 C         2.223463         0.954311        -1.076061
 C         3.403245         0.725402        -0.056451
 O         4.660230         1.278570        -0.045916
 C         2.379652         0.249863         1.059240
 H         3.756262        -2.734948         0.831918
 H         4.982730        -1.927379        -0.130238
 H         4.794184        -1.347896         1.597240
 H        -0.543612        -0.718392         0.743860
 H        -0.517201         1.023636        -0.035426
 H        -0.603826        -0.448538        -0.950015
 H         2.378223         0.581558        -2.087918
 H         1.874368         1.988293        -1.139397
 H         4.797180         1.601790         0.835479
 H         2.209531         0.604980         2.035719
