19
Iteration:   523charge 0 multiplicity 1
 C         4.289653        -1.836484         0.666298
 C         3.199301        -0.850628         0.258824
 O         2.029744        -1.209023        -0.457324
 C         1.342773         0.008937        -0.163185
 C        -0.177675        -0.108389        -0.068681
 C         2.259082         1.103885        -0.938702
 C         3.356399         0.629727        -0.073963
 O         4.623706         1.249631         0.008542
 C         2.482170         0.194747         1.103865
 H         3.852982        -2.656957         1.175582
 H         4.840599        -2.261606        -0.263994
 H         4.928934        -1.213748         1.409413
 H        -0.381891        -0.994796         0.483056
 H        -0.511632         0.720163         0.494683
 H        -0.661267        -0.083699        -1.057524
 H         2.384223         0.875235        -1.984845
 H         1.913239         2.093868        -0.608453
 H         4.471394         2.148869         0.375847
 H         2.420435         0.583910         2.195167
