19
Iteration:  3620
 C         4.252378        -1.758486         0.741459
 C         3.222105        -0.806631         0.264912
 O         2.117192        -1.369943        -0.453172
 C         1.401745         0.109478        -0.117747
 C        -0.120516         0.054547        -0.000919
 C         2.260423         0.937719        -1.072758
 C         3.350419         0.650905        -0.059464
 O         4.545002         1.287362        -0.015258
 C         2.424189         0.185059         1.049195
 H         3.705198        -2.359796         1.512302
 H         4.534662        -2.450371        -0.069333
 H         5.035118        -1.362083         1.337218
 H        -0.347854        -0.757613         0.718965
 H        -0.593772         0.966386         0.251767
 H        -0.715536        -0.442828        -0.903321
 H         2.118533         0.449563        -2.022497
 H         1.922735         1.967552        -1.180131
 H         4.654641         2.009921         0.578317
 H         2.339292         0.395727         2.066571
