19
Iteration:  4147charge 0 multiplicity 1
 C         4.150793        -1.766181         0.723202
 C         3.088841        -0.758039         0.267095
 O         2.063978        -1.236626        -0.444304
 C         1.362545         0.005854        -0.048732
 C        -0.084563        -0.205284        -0.072616
 C         2.269581         1.072355        -0.952489
 C         3.439059         0.670248        -0.075045
 O         4.697665         1.227075        -0.080786
 C         2.368022         0.193442         1.080509
 H         3.944448        -2.081985         1.738596
 H         4.382926        -2.434739        -0.086752
 H         5.054369        -1.087223         0.946190
 H        -0.455568        -0.604038         0.905384
 H        -0.576780         0.831160        -0.121664
 H        -0.207541        -0.958779        -0.866419
 H         2.363114         0.743059        -2.005470
 H         2.028796         2.175111        -0.956566
 H         4.537205         2.174915         0.204748
 H         2.344548         0.408691         2.034058
