19
Iteration:    88
 C         4.179043        -1.836491         0.567311
 C         3.225667        -0.782735         0.211602
 O         2.058618        -1.346628        -0.469721
 C         1.397473        -0.056617        -0.116135
 C        -0.136819         0.056055        -0.075750
 C         2.141249         0.948294        -1.069243
 C         3.371202         0.706037         0.003568
 O         4.573812         1.423099         0.185802
 C         2.558691         0.171162         1.177294
 H         3.789684        -2.662719         1.117917
 H         4.655498        -2.169890        -0.316715
 H         5.034275        -1.408169         1.020640
 H        -0.527723        -0.532432         0.727395
 H        -0.370746         1.043408         0.227714
 H        -0.600971        -0.169347        -1.007869
 H         2.264180         0.655815        -2.095482
 H         1.707450         1.931430        -0.923521
 H         5.255034         0.983175        -0.368649
 H         2.565102         0.209148         2.243055
