19
Iteration:  2616charge 0 multiplicity 1
 C         4.316149        -1.733749         0.622600
 C         3.184551        -0.761452         0.342729
 O         2.049770        -1.259221        -0.421272
 C         1.370143        -0.011756        -0.143664
 C        -0.132136         0.025557        -0.035540
 C         2.209017         0.972443        -1.017913
 C         3.380593         0.576200        -0.132746
 O         4.590241         1.158854         0.043029
 C         2.416345         0.222977         1.109639
 H         4.019859        -2.449725         1.433370
 H         4.626588        -2.344573        -0.260812
 H         5.137050        -1.112885         0.883539
 H        -0.502994        -0.645989         0.731331
 H        -0.253570         1.010876         0.342095
 H        -0.643901        -0.004372        -1.088977
 H         2.296592         0.671479        -2.038677
 H         2.164302         2.025252        -0.948048
 H         4.472742         2.041134         0.363221
 H         2.237586         0.489160         2.151083
