19
Iteration:   370charge 0 multiplicity 1
 C         4.287284        -1.692704         0.549175
 C         3.121278        -0.890206         0.322288
 O         2.023044        -1.323575        -0.425103
 C         1.392947         0.106713        -0.141621
 C        -0.055185         0.001684        -0.078308
 C         2.331983         1.038049        -0.944430
 C         3.367354         0.567492         0.046232
 O         4.578709         1.233697        -0.025815
 C         2.358832         0.113635         1.110928
 H         4.136971        -2.390745         1.273379
 H         4.654059        -1.996247        -0.464075
 H         5.094449        -1.042654         0.885400
 H        -0.403295        -0.822425         0.553831
 H        -0.530815         0.899365         0.377547
 H        -0.377909        -0.229116        -1.131584
 H         2.363153         1.003737        -2.047991
 H         1.901438         2.069008        -0.707346
 H         4.350152         2.112076         0.391261
 H         2.260376         0.453712         2.171398
