19
Iteration:  3132charge 0 multiplicity 1
 C         4.227282        -1.829817         0.758665
 C         3.178109        -0.882012         0.228955
 O         1.953566        -1.297634        -0.357432
 C         1.437066         0.120263        -0.115382
 C        -0.078380        -0.045286        -0.006011
 C         2.234840         0.955820        -1.090544
 C         3.436488         0.618493        -0.101023
 O         4.562975         1.319020         0.040868
 C         2.486134         0.227809         0.981320
 H         3.878178        -2.614254         1.465094
 H         4.732284        -2.241248        -0.128954
 H         4.956435        -1.148266         1.205556
 H        -0.453928        -0.945421         0.557308
 H        -0.357752         0.891376         0.573879
 H        -0.485205        -0.147260        -1.061190
 H         2.539920         0.742261        -2.165272
 H         1.886434         2.002841        -0.949777
 H         4.298729         2.220180         0.165319
 H         2.411374         0.476434         1.989153
