19
Iteration:  4637
 C         4.121885        -1.815426         0.761315
 C         3.129857        -0.826153         0.364735
 O         2.128138        -1.316004        -0.494694
 C         1.464262         0.065833        -0.054680
 C        -0.052118        -0.103671        -0.068315
 C         2.180790         1.094810        -0.882471
 C         3.395848         0.650693        -0.109528
 O         4.544558         1.363038        -0.179133
 C         2.464487         0.195481         1.115657
 H         3.693999        -2.773653         1.224282
 H         4.751896        -2.040746        -0.046547
 H         4.745963        -1.400801         1.602316
 H        -0.474146        -0.967265         0.557623
 H        -0.595696         0.808942         0.200742
 H        -0.358352        -0.201111        -1.055813
 H         2.394871         1.006649        -1.952946
 H         1.879161         2.144429        -0.649454
 H         5.263633         0.685658        -0.278425
 H         2.206563         0.419932         2.111011
