19
Iteration:  4804
 C         4.163486        -1.878589         0.642922
 C         3.233943        -0.749169         0.344048
 O         1.973038        -1.252068        -0.429604
 C         1.422866         0.057449        -0.006205
 C        -0.067205        -0.230673        -0.103431
 C         2.203244         1.024719        -0.917218
 C         3.389960         0.777030        -0.069089
 O         4.653360         1.309128         0.003963
 C         2.432937         0.300909         1.039474
 H         3.638540        -2.420559         1.454199
 H         4.251930        -2.506763        -0.314493
 H         5.097340        -1.587348         1.096502
 H        -0.160632        -1.228167         0.106278
 H        -0.617437         0.340549         0.618950
 H        -0.434519         0.018528        -1.155663
 H         2.328804         0.671358        -1.971841
 H         1.868978         2.066967        -0.874612
 H         5.030230         0.978222        -0.875284
 H         2.355155         0.712149         2.027263
