19
Iteration:   738charge 0 multiplicity 1
 C         4.359459        -1.709540         0.518610
 C         3.209278        -0.778220         0.338685
 O         2.050282        -1.389901        -0.368067
 C         1.463510        -0.079011        -0.200614
 C        -0.083711         0.094169        -0.085894
 C         2.213138         1.061939        -0.970924
 C         3.308157         0.628551        -0.050901
 O         4.514647         1.223169         0.038574
 C         2.373596         0.142518         1.085509
 H         3.982698        -2.535445         1.118068
 H         4.629488        -2.062985        -0.448194
 H         5.199940        -1.270856         1.100590
 H        -0.565446        -0.567862         0.622607
 H        -0.178742         1.036133         0.542641
 H        -0.742107         0.132717        -1.018599
 H         2.542588         0.880797        -2.034050
 H         1.974247         2.061795        -0.669998
 H         4.478399         1.868093         0.743581
 H         2.248098         0.355060         2.155989
