19
Iteration:  1764
 C         4.347949        -1.688658         0.641051
 C         3.138068        -0.849920         0.341521
 O         1.963073        -1.343496        -0.409888
 C         1.382901         0.081579        -0.111550
 C        -0.110598         0.002583        -0.135549
 C         2.154455         1.051309        -0.940100
 C         3.398719         0.616586        -0.150182
 O         4.645348         1.150463         0.068561
 C         2.492459         0.212586         1.059169
 H         4.156028        -2.335480         1.486929
 H         4.706169        -2.448559        -0.057281
 H         5.134546        -0.959038         0.888560
 H        -0.523861        -0.599348         0.645004
 H        -0.712508         0.935594        -0.145461
 H        -0.503034        -0.589283        -1.070681
 H         2.113010         0.859392        -2.036996
 H         1.730504         2.023437        -0.595991
 H         4.612259         2.084076         0.270587
 H         2.636048         0.561754         2.082986
