19
Iteration:  4639charge 0 multiplicity 1
 C         4.115940        -1.808642         0.762277
 C         3.142568        -0.816546         0.373982
 O         2.113318        -1.302997        -0.505203
 C         1.454164         0.068145        -0.064055
 C        -0.049073        -0.122169        -0.062845
 C         2.177706         1.077372        -0.879928
 C         3.403103         0.635588        -0.125125
 O         4.555440         1.372978        -0.171183
 C         2.466571         0.204538         1.131318
 H         3.639627        -2.730313         1.187000
 H         4.782828        -2.058390        -0.061773
 H         4.723798        -1.462702         1.572162
 H        -0.471565        -0.935193         0.562379
 H        -0.523556         0.826545         0.224334
 H        -0.320787        -0.267429        -1.134765
 H         2.369198         0.992864        -1.988889
 H         1.903388         2.120978        -0.610006
 H         5.174027         0.647933        -0.284815
 H         2.222349         0.460903         2.181591
