19
Iteration:   795
 C         4.240070        -1.813345         0.517162
 C         3.223441        -0.803204         0.273019
 O         2.066873        -1.274502        -0.450318
 C         1.388695         0.079883        -0.095306
 C        -0.104797        -0.132540        -0.042518
 C         2.272661         1.086379        -0.913592
 C         3.358115         0.686017        -0.033652
 O         4.596210         1.186285         0.074090
 C         2.361226         0.260324         1.067257
 H         3.994537        -2.342982         1.337381
 H         4.462067        -2.524431        -0.283936
 H         5.194163        -1.322354         0.690149
 H        -0.325894        -0.511719         0.958625
 H        -0.681249         0.708301        -0.356391
 H        -0.270118        -1.048427        -0.722515
 H         2.349277         1.007949        -1.983373
 H         2.002315         2.128796        -0.786916
 H         4.398642         2.153854         0.218008
 H         2.126846         0.365128         2.140214
