19
Iteration:  1609
 C         4.334473        -1.648406         0.578366
 C         3.115730        -0.857103         0.318025
 O         1.977738        -1.305427        -0.393812
 C         1.392343         0.003039        -0.110310
 C        -0.093537         0.015146        -0.111071
 C         2.165485         0.982067        -0.911272
 C         3.388824         0.615377        -0.070298
 O         4.679732         1.114007         0.017302
 C         2.395152         0.287622         1.065552
 H         4.344168        -2.183132         1.585396
 H         4.678134        -2.148209        -0.334004
 H         5.185240        -1.052388         0.912318
 H        -0.691226        -0.557031         0.672043
 H        -0.452403         1.035446        -0.243006
 H        -0.165459        -0.531222        -1.153017
 H         1.956556         0.864642        -2.031549
 H         1.962404         2.014286        -0.769189
 H         4.619734         1.947287         0.552363
 H         2.390403         0.454728         2.183798
