19
Iteration:  3691
 C         4.272690        -1.721088         0.735523
 C         3.145056        -0.849205         0.349971
 O         2.008931        -1.225901        -0.416151
 C         1.392878         0.006301        -0.104777
 C        -0.164440        -0.101235        -0.114800
 C         2.172407         0.938158        -1.015812
 C         3.339173         0.681170        -0.077223
 O         4.731309         1.234990        -0.035923
 C         2.465873         0.215061         1.103579
 H         3.909304        -2.569010         1.285618
 H         4.797765        -2.107263        -0.123989
 H         4.936531        -1.178671         1.485590
 H        -0.593098        -1.040656         0.318714
 H        -0.532948         0.835668         0.474749
 H        -0.657490        -0.072326        -1.080312
 H         2.334464         0.721603        -2.098664
 H         1.995321         2.025926        -0.949108
 H         4.680580         2.144280        -0.316955
 H         2.534990         0.625903         2.179217
