19
Iteration:  4530charge 0 multiplicity 1
 C         4.206563        -1.809908         0.623169
 C         3.169912        -0.861158         0.382279
 O         2.038475        -1.330621        -0.431368
 C         1.459268         0.031428        -0.126386
 C        -0.056125        -0.042830        -0.059254
 C         2.252389         0.994215        -1.016208
 C         3.339139         0.683632        -0.048589
 O         4.565814         1.412602         0.043016
 C         2.433129         0.273412         1.092300
 H         3.709545        -2.665337         1.173225
 H         4.298250        -2.243773        -0.363881
 H         5.154658        -1.452072         0.898934
 H        -0.455324        -0.686303         0.785708
 H        -0.780979         0.742991         0.041553
 H        -0.418922        -0.671405        -0.881690
 H         2.215407         0.418890        -1.953701
 H         1.889823         2.034964        -1.005892
 H         5.368238         0.915047        -0.236590
 H         2.430245         0.648220         2.053026
