19
Iteration:  1519
 C         4.158968        -1.899028         0.769703
 C         3.254310        -0.797470         0.203483
 O         2.060195        -1.330511        -0.465571
 C         1.386749        -0.029002        -0.142391
 C        -0.123599        -0.007848        -0.010217
 C         2.209031         1.026742        -0.947819
 C         3.380786         0.648818        -0.127168
 O         4.620074         1.353941        -0.007502
 C         2.498074         0.231030         1.022127
 H         3.519328        -2.592567         1.277223
 H         4.748507        -2.212534         0.020420
 H         4.886576        -1.450794         1.490796
 H        -0.540098        -0.836793         0.594361
 H        -0.569345         0.811362         0.558930
 H        -0.571611         0.056198        -1.000412
 H         2.209550         0.791148        -2.032883
 H         1.845333         2.036869        -0.800873
 H         4.548007         2.091902         0.629326
 H         2.604730         0.414378         2.067062
