19
Iteration:  1897
 C         4.191647        -1.826172         0.798906
 C         3.187910        -0.844422         0.238619
 O         2.129316        -1.224174        -0.485051
 C         1.393222         0.012702        -0.194917
 C        -0.113343        -0.025656         0.043390
 C         2.280925         1.079790        -0.979186
 C         3.305872         0.649465        -0.060580
 O         4.592794         1.252922        -0.108634
 C         2.402378         0.132661         1.095689
 H         3.567073        -2.534943         1.218241
 H         4.790149        -2.247655         0.000647
 H         4.876518        -1.264255         1.505619
 H        -0.208573        -0.785662         0.823303
 H        -0.439855         0.970327         0.427032
 H        -0.580076        -0.240124        -0.933640
 H         2.477177         0.789553        -1.992445
 H         1.909344         2.165768        -0.992508
 H         4.707833         2.112425         0.285655
 H         2.296020        -0.001741         2.300749
