19
Iteration:  3790
 C         4.221326        -1.901571         0.719417
 C         3.188544        -0.819699         0.337686
 O         2.061367        -1.354340        -0.425421
 C         1.406234         0.007638        -0.215388
 C        -0.048379        -0.050689        -0.062522
 C         2.136813         0.967061        -1.082993
 C         3.306818         0.774218        -0.020828
 O         4.597013         1.297606        -0.013650
 C         2.552321         0.320588         1.098388
 H         3.899857        -2.483358         1.546364
 H         4.468529        -2.542140        -0.104671
 H         5.104362        -1.476673         1.252418
 H        -0.556306        -0.502029         0.901056
 H        -0.331980         1.099967         0.038553
 H        -0.616928        -0.600500        -0.792288
 H         2.280809         0.641739        -2.128009
 H         1.635873         1.927611        -1.038253
 H         4.531379         2.133785         0.467443
 H         2.620483         0.702035         2.049616
