19
Iteration:  1166charge 0 multiplicity 1
 C         4.195223        -1.910516         0.664434
 C         3.129432        -0.821859         0.354506
 O         2.086129        -1.232598        -0.576059
 C         1.406608         0.023549        -0.171648
 C        -0.146336        -0.121497         0.051361
 C         2.340415         1.062378        -0.979700
 C         3.400069         0.600285        -0.039294
 O         4.606977         1.338612         0.024091
 C         2.374257         0.244632         1.062664
 H         3.873284        -2.635620         1.437699
 H         4.491207        -2.381644        -0.345418
 H         5.122301        -1.432461         0.958705
 H        -0.331364        -0.742551         0.962730
 H        -0.468556         0.871951         0.261233
 H        -0.679714        -0.654295        -0.720119
 H         2.450824         0.918389        -2.043684
 H         2.222884         2.150634        -0.762496
 H         4.428527         2.304836         0.126384
 H         2.138198         0.546227         2.100645
