19
Iteration:  1607
 C         4.350066        -1.649534         0.571237
 C         3.109885        -0.858530         0.304554
 O         1.961944        -1.305183        -0.394515
 C         1.406054        -0.005099        -0.102470
 C        -0.092039         0.011356        -0.117342
 C         2.152039         0.978131        -0.918252
 C         3.388095         0.631812        -0.073881
 O         4.688634         1.114551         0.030287
 C         2.400112         0.297981         1.068409
 H         4.318653        -2.209734         1.577341
 H         4.647942        -2.250714        -0.281153
 H         5.187379        -1.070256         0.956017
 H        -0.671569        -0.605022         0.682143
 H        -0.429278         1.086603        -0.260257
 H        -0.181265        -0.571895        -1.121159
 H         1.948457         0.855517        -2.053347
 H         1.958371         2.051868        -0.746012
 H         4.592064         1.949542         0.518280
 H         2.378592         0.496199         2.226953
