19
Iteration:  2121
 C         4.339419        -1.816730         0.649959
 C         3.135704        -0.827719         0.276287
 O         1.995975        -1.333382        -0.330562
 C         1.381178         0.044427        -0.008050
 C        -0.160018         0.030628        -0.122140
 C         2.162379         1.058551        -1.058910
 C         3.400694         0.677490        -0.091117
 O         4.707579         1.204639         0.007800
 C         2.424529         0.220224         1.060739
 H         4.104158        -2.598383         1.396553
 H         4.712549        -2.030640        -0.323357
 H         5.019354        -1.225240         1.198769
 H        -0.505667        -0.753706         0.518223
 H        -0.549175         1.074968         0.066765
 H        -0.295943        -0.386689        -1.163542
 H         2.258207         0.617579        -2.098286
 H         1.587385         1.944667        -0.878111
 H         4.516157         2.119436         0.227964
 H         2.422805         0.217084         2.199334
