19
Iteration:  1882charge 0 multiplicity 1
 C         4.164731        -1.799697         0.814559
 C         3.242091        -0.797890         0.235776
 O         2.055972        -1.303856        -0.601614
 C         1.419174         0.038655        -0.081308
 C        -0.087538        -0.011656         0.031225
 C         2.155214         0.986571        -0.964841
 C         3.445408         0.623278        -0.074745
 O         4.624408         1.281360        -0.050720
 C         2.426082         0.212079         1.024068
 H         3.599720        -2.699014         1.261188
 H         4.870425        -2.347341         0.160135
 H         4.788862        -1.255223         1.515251
 H        -0.413577        -0.767972         0.698271
 H        -0.394884         0.959351         0.423711
 H        -0.660893        -0.253534        -0.888364
 H         2.108087         0.791460        -2.069947
 H         1.952322         1.977297        -0.609049
 H         4.426304         2.032685         0.530894
 H         2.392793         0.469863         2.041349
