19
Iteration:  1078charge 0 multiplicity 1
 C         4.309623        -1.687109         0.609644
 C         3.146554        -0.863179         0.373169
 O         1.981021        -1.296987        -0.527960
 C         1.392179        -0.049782        -0.191170
 C        -0.040100         0.007215        -0.041572
 C         2.296149         0.942547        -0.911285
 C         3.321513         0.703744         0.074366
 O         4.609888         1.204306        -0.064823
 C         2.337531         0.235617         1.097596
 H         3.978733        -2.611481         1.006567
 H         4.945211        -1.762153        -0.359731
 H         5.067676        -1.149878         1.187652
 H        -0.468558        -0.919687         0.397645
 H        -0.397701         0.740653         0.580437
 H        -0.431525         0.171605        -1.060998
 H         2.464172         0.783277        -1.976829
 H         1.979665         1.977564        -0.851002
 H         4.768410         1.921453         0.599442
 H         2.203702         0.420900         2.285010
