19
Iteration:  4019charge 0 multiplicity 1
 C         4.247537        -1.731768         0.777594
 C         3.181766        -0.818155         0.314211
 O         2.032051        -1.303611        -0.388449
 C         1.383945        -0.030554        -0.088540
 C        -0.045824        -0.077406        -0.075401
 C         2.146453         1.111791        -1.041386
 C         3.363218         0.689726        -0.112873
 O         4.655173         1.166927        -0.067943
 C         2.430003         0.209470         1.036739
 H         3.965905        -2.524017         1.524622
 H         4.926543        -2.306449         0.077992
 H         4.979966        -1.034124         1.295816
 H        -0.313540        -1.118817         0.302588
 H        -0.608544         0.790252         0.362436
 H        -0.412669        -0.117823        -1.079156
 H         2.243605         1.183795        -2.149136
 H         1.626743         2.065566        -0.733433
 H         4.630583         2.015173         0.365600
 H         2.213839         0.553928         2.063911
