19
Iteration:  1431charge 0 multiplicity 1
 C         4.292819        -1.741849         0.518756
 C         3.180370        -0.774003         0.319231
 O         2.037133        -1.285831        -0.397102
 C         1.421173         0.017284        -0.060994
 C        -0.146849        -0.029594        -0.131273
 C         2.209361         1.015998        -1.006191
 C         3.343716         0.677109        -0.024373
 O         4.604014         1.106998         0.075627
 C         2.445959         0.244692         1.151374
 H         3.918193        -2.557386         1.163563
 H         4.699225        -2.133082        -0.391639
 H         5.180553        -1.207269         0.916238
 H        -0.454971        -0.604797         0.730020
 H        -0.677969         0.961618        -0.129725
 H        -0.245765        -0.404157        -1.092265
 H         2.338587         0.696007        -2.028850
 H         1.899291         2.086751        -0.935025
 H         4.554955         2.088728         0.005387
 H         2.301627         0.576474         2.174035
