19
Iteration:  4142
 C         4.161426        -1.723557         0.724908
 C         3.171539        -0.789630         0.244563
 O         2.043784        -1.215600        -0.436128
 C         1.391713         0.051372        -0.062187
 C        -0.088679        -0.189854        -0.088552
 C         2.214151         1.050135        -0.958005
 C         3.390238         0.632393        -0.092731
 O         4.651708         1.212429        -0.047991
 C         2.444794         0.235579         1.075676
 H         3.927624        -2.243218         1.683964
 H         4.371925        -2.533155        -0.013416
 H         5.093961        -1.241627         1.029463
 H        -0.475746        -0.649755         0.810562
 H        -0.626760         0.718940        -0.267211
 H        -0.410002        -0.962901        -0.834915
 H         2.431231         0.698566        -1.973691
 H         2.089349         2.113115        -0.866585
 H         4.542269         2.123477         0.240923
 H         2.438485         0.397492         2.265126
