19
Iteration:   705
 C         4.287246        -1.837297         0.640210
 C         3.206074        -0.826343         0.291378
 O         2.018334        -1.268668        -0.498100
 C         1.371140         0.016732        -0.060972
 C        -0.155635        -0.024756        -0.046880
 C         2.170503         0.945894        -0.968134
 C         3.444707         0.650867        -0.055098
 O         4.666291         1.369983         0.016373
 C         2.413719         0.165809         1.095002
 H         3.854673        -2.774839         0.997476
 H         4.945894        -2.042252        -0.173515
 H         4.915005        -1.368001         1.405608
 H        -0.495260        -1.044854         0.163468
 H        -0.562095         0.738676         0.681137
 H        -0.618630         0.436563        -0.955494
 H         2.236561         0.544852        -2.027422
 H         1.963178         2.015821        -1.004403
 H         4.460387         2.325085         0.143534
 H         2.228650         0.022980         2.188216
