19
Iteration:  2524charge 0 multiplicity 1
 C         4.219150        -1.829674         0.668572
 C         3.226118        -0.816116         0.341716
 O         1.997798        -1.308642        -0.393420
 C         1.421164        -0.004129        -0.122699
 C        -0.076978         0.009116        -0.026887
 C         2.206402         1.040271        -0.997202
 C         3.348143         0.701035        -0.096890
 O         4.640814         1.267283        -0.024743
 C         2.435288         0.137564         1.049589
 H         3.726792        -2.616244         1.230317
 H         4.767236        -2.362195        -0.093440
 H         4.969408        -1.248801         1.289509
 H        -0.452027        -0.636129         0.834575
 H        -0.627128         1.024201         0.019518
 H        -0.458526        -0.328844        -1.021112
 H         2.331801         0.750798        -2.044683
 H         2.004554         2.114854        -0.910573
 H         4.621596         2.262660        -0.072457
 H         2.280161         0.404834         2.122984
