19
Iteration:  4654
 C         4.163160        -1.870053         0.766593
 C         3.223051        -0.747720         0.289359
 O         2.011380        -1.163480        -0.472223
 C         1.394753        -0.037377        -0.074908
 C        -0.061527        -0.172846        -0.077808
 C         2.172913         1.004113        -0.941350
 C         3.413618         0.655057        -0.065910
 O         4.643728         1.357039        -0.097476
 C         2.409949         0.283064         1.118803
 H         3.477173        -2.644905         0.967472
 H         4.802976        -2.287168        -0.087790
 H         4.726354        -1.642999         1.693642
 H        -0.230985        -0.886171         0.702165
 H        -0.634996         0.778345         0.083783
 H        -0.504352        -0.623299        -1.062604
 H         1.914826         0.862717        -2.002527
 H         1.935957         2.035574        -0.679040
 H         5.509033         0.965105        -0.381728
 H         2.661171         0.554561         2.160358
