19
Iteration:  4259
 C         4.249980        -1.755757         0.624409
 C         3.133735        -0.846302         0.419969
 O         2.116936        -1.323463        -0.392659
 C         1.390857        -0.003281        -0.178409
 C         0.001512         0.042266        -0.060307
 C         2.210028         0.832324        -1.044645
 C         3.333188         0.588577        -0.046244
 O         4.574116         1.323129        -0.055537
 C         2.355733         0.376881         1.098407
 H         4.105519        -2.855333         0.823386
 H         4.850452        -1.775377        -0.341747
 H         4.843392        -1.548280         1.468257
 H        -0.373051        -0.849252         0.585293
 H        -0.194996         1.041231         0.341424
 H        -0.600697        -0.012788        -0.997682
 H         2.296580         0.643550        -2.155881
 H         1.882881         1.890662        -0.858732
 H         4.744511         1.684226         0.803394
 H         2.019169         0.535349         2.199620
