19
Iteration:   400charge 0 multiplicity 1
 C         4.406822        -1.826926         0.491447
 C         3.161466        -0.804549         0.295507
 O         2.027702        -1.274213        -0.361581
 C         1.376390        -0.002767        -0.068847
 C        -0.170236         0.033459        -0.125474
 C         2.123123         0.965421        -1.072912
 C         3.345665         0.693812         0.025774
 O         4.667353         1.232281         0.136274
 C         2.461501         0.201892         1.091705
 H         4.078170        -2.668826         1.247733
 H         4.715098        -2.259083        -0.545226
 H         5.171648        -1.124074         0.824389
 H        -0.676634        -0.761430         0.447729
 H        -0.475932         1.132789        -0.051688
 H        -0.427585        -0.152639        -1.113394
 H         2.215754         0.542546        -2.138777
 H         1.603588         1.912355        -0.966355
 H         4.556588         2.047943         0.626662
 H         2.395630         0.439229         2.095260
