19
Iteration:  3941
 C         4.257908        -1.814768         0.652603
 C         3.194455        -0.834511         0.323082
 O         2.050787        -1.352619        -0.363525
 C         1.328275        -0.030729        -0.128988
 C        -0.097313        -0.038612        -0.047898
 C         2.213021         0.972613        -1.062988
 C         3.401974         0.678967        -0.161686
 O         4.582473         1.289330         0.120065
 C         2.467163         0.307407         1.060963
 H         3.955302        -2.534421         1.414520
 H         4.646119        -2.410566        -0.225007
 H         5.278530        -1.405248         0.948546
 H        -0.572634        -0.303445         0.921285
 H        -0.431853         1.055858        -0.273474
 H        -0.550628        -0.524353        -0.869153
 H         2.263632         0.710118        -2.159688
 H         1.794108         2.007550        -1.005930
 H         4.480466         2.248024         0.097385
 H         2.550248         0.842343         1.891158
