19
Iteration:  4362
 C         4.229211        -1.759764         0.659152
 C         3.167961        -0.787615         0.394159
 O         1.999282        -1.368465        -0.468680
 C         1.399462        -0.052641        -0.033366
 C        -0.024789        -0.037578        -0.101232
 C         2.262653         1.019058        -1.015903
 C         3.364659         0.706267        -0.015055
 O         4.623966         1.307882        -0.057459
 C         2.371167         0.174065         1.114525
 H         4.038306        -2.243235         1.586289
 H         4.299016        -2.415544        -0.132513
 H         5.289571        -1.346884         0.662708
 H        -0.506425        -0.740091         0.571093
 H        -0.394507         0.974111         0.170630
 H        -0.240117        -0.323735        -1.105471
 H         2.443721         0.609428        -2.031705
 H         1.783970         2.007566        -1.010457
 H         4.544098         2.290712         0.017062
 H         2.256901         0.575274         2.123592
