19
Iteration:  1430
 C         4.293463        -1.753382         0.519708
 C         3.179982        -0.770564         0.310244
 O         2.033236        -1.281743        -0.392464
 C         1.421060         0.001490        -0.051651
 C        -0.145629        -0.029503        -0.138759
 C         2.207960         1.020621        -1.007175
 C         3.345183         0.672926        -0.026520
 O         4.604125         1.111002         0.078427
 C         2.450138         0.245393         1.147510
 H         3.924219        -2.525545         1.182870
 H         4.719776        -2.112395        -0.385821
 H         5.159632        -1.206922         0.899747
 H        -0.450541        -0.584424         0.744721
 H        -0.714242         0.985455        -0.113952
 H        -0.246310        -0.427873        -1.110529
 H         2.349933         0.706156        -2.022537
 H         1.907623         2.126207        -0.958137
 H         4.531757         2.079305         0.023967
 H         2.325147         0.604459         2.190308
