19
Iteration:  4627charge 0 multiplicity 1
 C         4.228436        -1.833280         0.804318
 C         3.163939        -0.904906         0.292520
 O         2.114267        -1.354308        -0.444762
 C         1.393783         0.011566        -0.085204
 C        -0.085847         0.006811        -0.076617
 C         2.237777         1.159510        -0.918305
 C         3.341104         0.724005         0.022461
 O         4.553849         1.330081        -0.213747
 C         2.405193         0.180473         1.060502
 H         3.821378        -2.803804         1.263871
 H         4.811518        -2.145199        -0.020842
 H         4.858879        -1.223792         1.457848
 H        -0.319028        -0.998092         0.442755
 H        -0.621685         0.803053         0.442136
 H        -0.435292        -0.150056        -1.073094
 H         2.197383         0.953515        -2.020108
 H         1.786476         2.160632        -0.679658
 H         5.478626         0.973681        -0.136436
 H         2.248125         0.258829         2.115343
