19
Iteration:   912
 C         4.298419        -1.692428         0.553140
 C         3.145202        -0.776272         0.331570
 O         2.120528        -1.239902        -0.503064
 C         1.408971         0.004296        -0.123320
 C        -0.061919        -0.020925        -0.022622
 C         2.193605         0.924186        -1.017413
 C         3.295582         0.663117         0.041236
 O         4.596090         1.126041         0.060219
 C         2.345270         0.230474         1.123035
 H         3.922896        -2.653599         0.933393
 H         4.763776        -1.880715        -0.408518
 H         5.174549        -1.241001         1.078061
 H        -0.504066        -0.954397         0.196747
 H        -0.228501         0.726956         0.725862
 H        -0.469143         0.381819        -0.967093
 H         2.231624         0.561025        -2.051999
 H         1.986453         1.950705        -1.079527
 H         4.612247         2.066460         0.341544
 H         2.272759         0.434089         2.150664
