19
Iteration:  1906charge 0 multiplicity 1
 C         4.188556        -1.809673         0.784322
 C         3.174501        -0.800602         0.334942
 O         2.023520        -1.280864        -0.534359
 C         1.452034         0.009108        -0.161296
 C        -0.097410        -0.066884         0.037396
 C         2.285897         1.102603        -1.046516
 C         3.362497         0.757752         0.019065
 O         4.610744         1.222364        -0.119606
 C         2.428590         0.116315         1.109965
 H         3.788308        -2.726078         1.151273
 H         4.670473        -2.183466        -0.118228
 H         5.012253        -1.350533         1.370273
 H        -0.430314        -0.774813         0.695937
 H        -0.388779         0.952831         0.350093
 H        -0.647099        -0.327868        -0.907486
 H         2.616961         0.805587        -2.032273
 H         1.787249         2.089076        -0.876549
 H         4.578030         2.151292         0.110092
 H         2.062542         0.160513         2.236286
