19
Iteration:  1125charge 0 multiplicity 1
 C         4.243172        -1.734220         0.649891
 C         3.192627        -0.818114         0.202806
 O         1.997731        -1.327361        -0.456263
 C         1.395893        -0.118834        -0.001738
 C        -0.119643         0.006105        -0.198830
 C         2.144561         0.969596        -0.892224
 C         3.405345         0.692227        -0.094361
 O         4.668544         1.212738         0.054421
 C         2.518659         0.283544         1.122950
 H         3.685366        -2.558536         1.226189
 H         4.821634        -2.051912        -0.179254
 H         5.024870        -1.198712         1.122655
 H        -0.735479        -0.782664         0.169327
 H        -0.595545         0.778693         0.488906
 H        -0.309544         0.332096        -1.196278
 H         2.166378         0.936524        -1.957395
 H         1.553089         1.920948        -0.672392
 H         4.468919         2.134356         0.323221
 H         2.629248         0.513993         2.100742
