19
Iteration:   619
 C         4.289830        -1.738679         0.634276
 C         3.157778        -0.821093         0.211287
 O         1.942159        -1.307421        -0.573056
 C         1.387312         0.022920        -0.104890
 C        -0.050084        -0.046790        -0.060000
 C         2.212374         1.020858        -0.948328
 C         3.353088         0.707139         0.068130
 O         4.621163         1.241001         0.019943
 C         2.471270         0.176836         1.136138
 H         4.021074        -2.391857         1.422778
 H         4.552825        -2.349508        -0.246248
 H         5.144775        -1.116643         1.011647
 H        -0.364687        -0.380173         0.900363
 H        -0.548602         0.927889        -0.147650
 H        -0.354076        -0.695999        -0.901204
 H         2.538270         0.643595        -1.916987
 H         1.768774         2.000144        -0.854037
 H         4.679431         2.096191         0.516107
 H         2.417358         0.038792         2.277126
