19
Iteration:  3939
 C         4.257997        -1.806344         0.645239
 C         3.175122        -0.823216         0.330337
 O         2.046199        -1.363069        -0.376852
 C         1.339537        -0.027304        -0.116071
 C        -0.115531        -0.040264        -0.042520
 C         2.221888         0.966487        -1.070690
 C         3.389715         0.679389        -0.156868
 O         4.586342         1.293661         0.118730
 C         2.479683         0.285957         1.059062
 H         3.967065        -2.521939         1.431054
 H         4.629532        -2.355827        -0.256674
 H         5.290536        -1.380048         0.996013
 H        -0.583332        -0.235797         0.903950
 H        -0.414825         1.055446        -0.190110
 H        -0.544205        -0.568585        -0.937032
 H         2.363093         0.617131        -2.167179
 H         1.829509         2.057050        -1.023625
 H         4.480939         2.235471         0.141657
 H         2.609834         0.947538         1.914644
