19
Iteration:   750charge 0 multiplicity 1
 C         4.365910        -1.695245         0.538995
 C         3.200180        -0.841748         0.187762
 O         2.038031        -1.385027        -0.364678
 C         1.331521        -0.029482        -0.105390
 C        -0.126017         0.075081        -0.053837
 C         2.242549         0.995437        -1.006829
 C         3.349737         0.646993        -0.020642
 O         4.628630         1.236585         0.113384
 C         2.353050         0.210164         1.062063
 H         4.125349        -2.487039         1.130421
 H         4.688953        -2.148984        -0.393327
 H         5.265252        -1.110988         0.846813
 H        -0.520380        -0.611712         0.665851
 H        -0.375658         1.149129         0.079082
 H        -0.503711        -0.135575        -1.114009
 H         2.195036         0.924543        -2.101618
 H         1.791524         1.937849        -0.786933
 H         4.539460         1.939177         0.810598
 H         2.255843         0.141266         2.119965
