19
Iteration:  3539
 C         4.325349        -1.732081         0.629710
 C         3.099157        -0.845771         0.320929
 O         2.023668        -1.317093        -0.386880
 C         1.366737         0.050418        -0.107248
 C        -0.074142        -0.051567        -0.171657
 C         2.243702         0.949624        -0.943345
 C         3.303024         0.637339         0.025852
 O         4.708973         1.204696        -0.099791
 C         2.353084         0.344468         1.158435
 H         3.864183        -2.526715         1.212089
 H         4.796923        -2.241523        -0.227879
 H         5.246885        -1.222915         1.096918
 H        -0.364484        -0.684682         0.646598
 H        -0.710192         0.872876        -0.080623
 H        -0.297233        -0.409899        -1.075920
 H         2.312801         0.516011        -1.968253
 H         1.899197         1.997521        -0.872290
 H         4.602716         2.041013         0.353385
 H         2.255409         0.788325         2.208458
