19
Iteration:  4976charge 0 multiplicity 1
 C         4.180284        -1.881403         0.722986
 C         3.202553        -0.800378         0.282640
 O         2.102455        -1.254088        -0.539082
 C         1.365495         0.012701        -0.102760
 C        -0.093485        -0.073592        -0.079516
 C         2.175447         1.067300        -0.872080
 C         3.384507         0.623401        -0.038980
 O         4.551798         1.367978        -0.010260
 C         2.486624         0.226005         1.100877
 H         4.117754        -2.318493         1.782130
 H         4.038886        -2.697927         0.067083
 H         5.143900        -1.502019         0.602642
 H        -0.587416        -0.961050         0.332467
 H        -0.224093         0.928150         0.388907
 H        -0.383851         0.029651        -1.194892
 H         2.301553         0.862938        -1.964644
 H         1.839528         2.070343        -0.744120
 H         5.224977         0.770006        -0.308061
 H         2.372165         0.482254         2.128295
