19
Iteration:  1456charge 0 multiplicity 1
 C         4.291717        -1.684375         0.582585
 C         3.112087        -0.807861         0.416462
 O         2.050163        -1.282799        -0.477197
 C         1.415589        -0.042265        -0.155323
 C        -0.140885        -0.020116        -0.039443
 C         2.234238         1.040228        -0.966128
 C         3.385891         0.674600         0.034441
 O         4.741104         1.123358        -0.039329
 C         2.228906         0.233212         1.125079
 H         4.160237        -2.756506         0.972736
 H         4.798781        -1.907243        -0.438695
 H         5.074983        -1.052788         1.091099
 H        -0.220139        -0.833294         0.675087
 H        -0.413609         0.907459         0.307364
 H        -0.596193        -0.182688        -1.031910
 H         2.465944         0.680394        -2.012605
 H         1.927863         2.027601        -0.876845
 H         4.614379         2.079670        -0.073194
 H         1.928248         0.425653         2.140480
