19
Iteration:  2429charge 0 multiplicity 1
 C         4.245824        -1.803594         0.697256
 C         3.158949        -0.830981         0.337840
 O         1.994851        -1.335656        -0.430397
 C         1.382614         0.024187        -0.100627
 C        -0.106435         0.008670        -0.047430
 C         2.211680         1.061988        -0.994656
 C         3.398009         0.661798        -0.076207
 O         4.687660         1.232600        -0.060059
 C         2.395234         0.210755         1.084252
 H         3.881654        -2.614253         1.307247
 H         4.809172        -2.297643        -0.108085
 H         5.033423        -1.206985         1.318410
 H        -0.279210        -0.859945         0.460849
 H        -0.695449         0.845110         0.292187
 H        -0.387356        -0.314316        -1.122535
 H         2.163259         0.926519        -2.155466
 H         1.976205         2.115010        -0.732801
 H         4.549323         2.179587         0.037929
 H         2.529121         0.442301         2.200752
