19
Iteration:  3156
 C         4.386745        -1.774880         0.678331
 C         3.191846        -0.800302         0.406231
 O         2.014326        -1.320613        -0.413099
 C         1.359146         0.010322        -0.129421
 C        -0.141750         0.068437        -0.066848
 C         2.178924         0.931456        -1.040074
 C         3.369206         0.618927        -0.145935
 O         4.590383         1.197173         0.025903
 C         2.428271         0.258623         1.033204
 H         4.031777        -2.417633         1.530336
 H         4.720465        -2.353341        -0.224788
 H         5.143431        -1.121060         1.006645
 H        -0.625704        -0.648154         0.613222
 H        -0.393554         1.189011         0.202151
 H        -0.368932        -0.339523        -1.035367
 H         2.377073         0.817558        -2.177928
 H         1.868314         2.013451        -0.786166
 H         4.545985         1.910846         0.695031
 H         2.485359         0.728945         2.001726
