19
Iteration:  1179charge 0 multiplicity 1
 C         4.171216        -1.835499         0.612175
 C         3.120200        -0.950163         0.310261
 O         2.053323        -1.212267        -0.585610
 C         1.387126         0.021585        -0.200822
 C        -0.029681        -0.130728         0.108402
 C         2.333660         1.001508        -0.952998
 C         3.440624         0.638516         0.056941
 O         4.633558         1.360305         0.003277
 C         2.309545         0.284763         1.005506
 H         3.920840        -2.623275         1.476653
 H         4.319563        -2.557354        -0.209518
 H         4.944265        -1.255271         1.083150
 H        -0.171996        -0.496151         1.098517
 H        -0.526994         0.837833        -0.107412
 H        -0.515335        -0.710094        -0.629912
 H         2.491026         0.755600        -1.948178
 H         1.932839         2.073826        -0.709948
 H         4.391158         2.139892         0.535148
 H         2.167548         0.673331         1.903226
