19
Iteration:  1598charge 0 multiplicity 1
 C         4.396790        -1.703724         0.597366
 C         3.156833        -0.823307         0.263333
 O         1.905258        -1.313571        -0.394605
 C         1.397904        -0.006665        -0.021550
 C        -0.074715        -0.016834        -0.165818
 C         2.116881         1.027222        -1.003932
 C         3.352074         0.674260        -0.089584
 O         4.707475         1.126743         0.089933
 C         2.467775         0.289119         1.090543
 H         3.973016        -2.445824         1.347427
 H         4.574607        -2.543655        -0.071216
 H         5.206009        -1.002015         0.778827
 H        -0.450924        -0.560911         0.774329
 H        -0.473360         1.000993        -0.208209
 H        -0.527964        -0.643209        -1.041835
 H         2.218194         0.755837        -2.106795
 H         1.734886         1.959710        -0.674971
 H         4.627592         2.059357         0.344530
 H         2.284398         0.686858         2.148931
