19
Iteration:  3319
 C         4.207703        -1.711776         0.724347
 C         3.153401        -0.826517         0.208929
 O         2.012163        -1.396287        -0.395958
 C         1.411961        -0.038300        -0.114638
 C        -0.033006         0.011690        -0.041927
 C         2.193896         1.017855        -1.065061
 C         3.364330         0.689160        -0.076007
 O         4.679494         1.223488         0.041909
 C         2.450337         0.259590         1.032195
 H         3.674262        -2.488040         1.378354
 H         4.893732        -2.335057         0.092693
 H         4.915545        -1.202505         1.347911
 H        -0.643737        -0.743837         0.497761
 H        -0.204156         1.067323         0.521572
 H        -0.572474         0.031809        -1.024670
 H         2.327301         0.595362        -2.080561
 H         1.627865         1.969724        -1.045440
 H         4.359952         2.093251         0.275742
 H         2.308973         0.513629         2.141464
