19
Iteration:  4990charge 0 multiplicity 1
 C         4.261789        -1.849884         0.781783
 C         3.238866        -0.862508         0.293970
 O         2.058011        -1.299105        -0.554268
 C         1.457997         0.000443        -0.140116
 C        -0.060918         0.067294        -0.018818
 C         2.202173         1.065413        -0.906459
 C         3.397833         0.668377        -0.068055
 O         4.533431         1.407143        -0.022892
 C         2.312406         0.087121         1.028959
 H         3.999473        -2.061954         1.790584
 H         3.997469        -2.707396         0.127105
 H         5.342132        -1.656057         0.668237
 H        -0.289140        -0.821936         0.527706
 H        -0.567898         0.874864         0.538856
 H        -0.594522         0.002520        -1.064528
 H         2.165438         1.048789        -1.997594
 H         1.980266         2.024432        -0.447499
 H         5.345431         0.849022        -0.246375
 H         2.166237         0.177974         2.134206
