19
Iteration:  2836
 C         4.254941        -1.710466         0.470158
 C         3.154611        -0.817521         0.383777
 O         2.003182        -1.366755        -0.323432
 C         1.418635         0.003504        -0.124942
 C        -0.094254         0.030031        -0.128761
 C         2.258255         0.913171        -1.042516
 C         3.409741         0.672219        -0.011687
 O         4.585200         1.235575         0.032626
 C         2.410996         0.240526         1.149068
 H         3.960228        -2.571950         1.099012
 H         4.635235        -2.020728        -0.525850
 H         5.053304        -1.123776         1.071435
 H        -0.524451        -0.545936         0.779538
 H        -0.389148         1.109029        -0.021810
 H        -0.496191        -0.182960        -1.135136
 H         2.467995         0.488480        -2.082327
 H         1.890986         1.956134        -1.083778
 H         4.574195         2.103617         0.492906
 H         2.388186         0.466075         2.182155
