19
Iteration:   670charge 0 multiplicity 1
 C         4.140193        -1.906156         0.716526
 C         3.176597        -0.867347         0.227860
 O         2.051681        -1.251469        -0.515476
 C         1.406371         0.041369        -0.104068
 C        -0.002670        -0.187389        -0.017189
 C         2.137867         1.155457        -0.919614
 C         3.370838         0.705192        -0.103534
 O         4.641510         1.245684         0.031723
 C         2.498538         0.304439         1.028043
 H         3.654793        -2.796988         1.299696
 H         4.858355        -2.226008        -0.031767
 H         4.660551        -1.357895         1.487649
 H        -0.319037        -1.219520         0.336967
 H        -0.390781         0.532131         0.810241
 H        -0.355013        -0.106198        -1.052163
 H         2.121093         1.075215        -2.065194
 H         1.797416         2.158951        -0.536105
 H         4.590607         2.219983        -0.113132
 H         2.293826         0.431441         2.118697
