19
Iteration:  2224charge 0 multiplicity 1
 C         4.226142        -1.922900         0.817559
 C         3.217518        -0.889006         0.221166
 O         1.979014        -1.237737        -0.453046
 C         1.377302         0.032929        -0.091350
 C        -0.125865        -0.094809        -0.081978
 C         2.119609         1.077961        -0.982653
 C         3.403251         0.644692        -0.195593
 O         4.664877         1.268044         0.026587
 C         2.511751         0.273129         1.052817
 H         3.902420        -2.615482         1.535817
 H         4.847948        -2.522328         0.154655
 H         5.015859        -1.274280         1.290116
 H        -0.185448        -0.764825         0.827038
 H        -0.486521         0.807842         0.350803
 H        -0.495255        -0.315245        -1.078034
 H         2.093053         1.018491        -2.031884
 H         1.812599         2.101967        -0.722252
 H         4.564589         2.232749         0.178187
 H         2.601611         0.941806         1.890259
