19
Iteration:  3137charge 0 multiplicity 1
 C         4.272685        -1.820923         0.768997
 C         3.181755        -0.914701         0.239533
 O         1.953385        -1.304000        -0.359609
 C         1.456546         0.095323        -0.083492
 C        -0.093848        -0.042181        -0.040555
 C         2.229662         1.026944        -1.124607
 C         3.408025         0.590678        -0.117201
 O         4.562075         1.296605         0.044373
 C         2.467919         0.235868         0.999419
 H         3.992207        -2.590479         1.486497
 H         4.743484        -2.204260        -0.166831
 H         5.133334        -1.248911         1.181152
 H        -0.395336        -0.790905         0.663964
 H        -0.458140         0.879419         0.469401
 H        -0.523216        -0.015990        -1.008223
 H         2.319057         0.671997        -2.161629
 H         1.995108         2.117165        -1.037714
 H         4.222452         2.216190         0.283669
 H         2.380285         0.590894         2.085220
