19
Iteration:  2815
 C         4.392326        -1.787999         0.514260
 C         3.219573        -0.921751         0.464482
 O         1.996289        -1.242164        -0.430381
 C         1.402455         0.040485        -0.065256
 C        -0.174654         0.086577        -0.118578
 C         2.250112         0.848743        -1.043243
 C         3.375191         0.610136         0.031037
 O         4.583684         1.284736        -0.017871
 C         2.379736         0.281188         1.122386
 H         4.254523        -2.618190         1.232163
 H         4.416179        -2.254768        -0.476602
 H         5.322244        -1.277787         0.903474
 H        -0.580275        -0.772897         0.563218
 H        -0.586221         1.140889         0.089250
 H        -0.480807        -0.154269        -1.134842
 H         2.481354         0.483572        -2.037075
 H         1.977302         1.873923        -1.166850
 H         4.437837         1.901314         0.748929
 H         2.072587         0.672592         2.051384
