19
Iteration:  3550
 C         4.266113        -1.730944         0.639095
 C         3.179953        -0.742553         0.428783
 O         1.978500        -1.264498        -0.449815
 C         1.411314        -0.023705        -0.056123
 C        -0.076683        -0.049390        -0.157224
 C         2.188089         0.902883        -0.967816
 C         3.385559         0.684467        -0.039009
 O         4.650324         1.159112        -0.050737
 C         2.420827         0.299593         1.128354
 H         4.138353        -2.587481         1.281385
 H         4.448551        -2.010170        -0.401832
 H         5.166197        -1.176510         1.088974
 H        -0.567077        -0.633240         0.607436
 H        -0.448374         1.004746        -0.229177
 H        -0.254575        -0.576322        -1.002608
 H         2.326908         0.553248        -2.019884
 H         1.840950         1.951543        -0.995411
 H         4.629297         2.068528         0.254913
 H         2.088028         0.568327         2.173734
