19
Iteration:  1734
 C         4.176018        -1.795492         0.658943
 C         3.193420        -0.755522         0.335481
 O         2.077392        -1.276014        -0.499779
 C         1.426093        -0.030101        -0.148933
 C        -0.109472        -0.056437         0.012087
 C         2.254817         0.987015        -0.994815
 C         3.401840         0.672217        -0.023267
 O         4.606426         1.237332        -0.094005
 C         2.383521         0.240462         1.101533
 H         3.571901        -2.371286         1.311933
 H         4.810082        -2.465181         0.027456
 H         5.022551        -1.277478         1.212392
 H        -0.489210        -0.614874         0.859671
 H        -0.529685         0.973017         0.149804
 H        -0.582754        -0.314739        -0.910148
 H         2.518497         0.757756        -1.983384
 H         1.902245         2.041547        -0.834815
 H         4.668084         1.983043         0.552890
 H         2.186703         0.323968         2.269075
