19
Iteration:  3734
 C         4.310721        -1.713681         0.698062
 C         3.187795        -0.808128         0.385722
 O         2.017891        -1.269293        -0.376560
 C         1.408789        -0.086048        -0.181250
 C        -0.123467        -0.008306        -0.093967
 C         2.254005         1.012473        -1.016066
 C         3.342933         0.681892        -0.028175
 O         4.583069         1.153604        -0.049957
 C         2.416007         0.195107         1.073510
 H         4.195527        -2.525883         1.375504
 H         4.687309        -2.086770        -0.240553
 H         5.140994        -0.992595         1.010466
 H        -0.373814        -0.594848         0.841405
 H        -0.373435         1.152618        -0.081342
 H        -0.650463        -0.459192        -0.979681
 H         2.363364         0.880318        -2.096793
 H         1.676914         1.942250        -0.929976
 H         4.468325         2.056604         0.264316
 H         2.418310         0.752549         2.066075
