19
Iteration:  4710
 C         4.373816        -1.772044         0.589234
 C         3.146802        -0.903331         0.303131
 O         2.044899        -1.318802        -0.421790
 C         1.380934         0.014382        -0.180711
 C        -0.091510         0.090648         0.056518
 C         2.254518         0.873420        -1.091881
 C         3.364958         0.623663        -0.057154
 O         4.530219         1.339493         0.162837
 C         2.368696         0.267502         1.015193
 H         4.061455        -2.531294         1.312566
 H         4.828298        -2.256486        -0.290612
 H         5.208195        -1.286885         1.228290
 H        -0.394634        -0.300758         1.092121
 H        -0.523415         1.116889        -0.057990
 H        -0.711739        -0.507917        -0.667316
 H         2.130645         0.627252        -2.142153
 H         2.192488         1.951708        -0.822111
 H         5.094479         1.427245        -0.592911
 H         2.060407         0.662697         1.934727
