19
Iteration:  1589charge 0 multiplicity 1
 C         4.304198        -1.793030         0.617674
 C         3.248029        -0.806933         0.247692
 O         1.948622        -1.303590        -0.354158
 C         1.362768         0.024905        -0.077571
 C        -0.122766        -0.045248        -0.116574
 C         2.169195         1.053079        -1.017473
 C         3.324544         0.701228        -0.097677
 O         4.665582         1.149009         0.117087
 C         2.490530         0.225754         1.063738
 H         4.121177        -2.225578         1.630290
 H         4.623644        -2.251058        -0.368937
 H         5.268207        -1.272648         0.800842
 H        -0.536607        -0.414396         0.800879
 H        -0.608968         0.884500        -0.123657
 H        -0.423530        -0.574885        -1.062299
 H         2.274412         0.844177        -2.093885
 H         1.624979         1.988931        -0.994179
 H         4.752886         2.108442         0.160465
 H         2.488307         0.624862         2.070789
