19
Iteration:     9
 C         4.320378        -1.786083         0.541266
 C         3.198750        -0.826293         0.205080
 O         1.997559        -1.252424        -0.472134
 C         1.383362         0.007361        -0.098549
 C        -0.063335        -0.029650        -0.046031
 C         2.187957         0.990417        -0.970753
 C         3.334341         0.675422         0.027787
 O         4.648244         1.297812         0.137932
 C         2.396543         0.220311         1.111889
 H         3.862808        -2.437775         1.257527
 H         4.615442        -2.513579        -0.310609
 H         4.923087        -1.306713         1.267338
 H        -0.377895        -0.941463         0.505786
 H        -0.517357         1.013628         0.178637
 H        -0.308898        -0.328014        -1.002060
 H         2.180863         0.849853        -2.054554
 H         1.799150         1.971598        -0.748492
 H         5.082171         1.072198        -0.703790
 H         2.044034         0.448590         2.174420
