19
Iteration:  4736charge 0 multiplicity 1
 C         4.343194        -1.682577         0.623680
 C         3.159494        -0.872148         0.285078
 O         2.024111        -1.365340        -0.408493
 C         1.365665        -0.101169        -0.147527
 C        -0.072146         0.191153        -0.038844
 C         2.227907         0.881960        -1.040011
 C         3.300420         0.735853        -0.066916
 O         4.509152         1.327619         0.146239
 C         2.496830         0.135471         1.055375
 H         4.317576        -2.343710         1.573877
 H         4.492822        -2.355472        -0.242485
 H         5.280157        -1.147412         0.747222
 H        -0.626456        -0.381804         0.745316
 H        -0.257184         1.248923         0.170628
 H        -0.597267        -0.016543        -0.937902
 H         2.327193         0.403178        -2.017340
 H         1.756089         1.872148        -1.113773
 H         5.196143         1.176182        -0.506039
 H         2.445626         0.250434         2.192514
