19
Iteration:   870
 C         4.256479        -1.788278         0.684260
 C         3.166749        -0.944467         0.265381
 O         1.992882        -1.302849        -0.465030
 C         1.413978         0.032126        -0.122536
 C        -0.118381        -0.012874        -0.068355
 C         2.154827         1.038381        -0.952295
 C         3.433350         0.638578        -0.089361
 O         4.594086         1.340424         0.074449
 C         2.543890         0.166515         1.029609
 H         3.984315        -2.742960         1.022149
 H         4.936565        -2.011977        -0.198648
 H         4.890554        -1.260535         1.457384
 H        -0.431393        -0.926422         0.419520
 H        -0.495786         0.744225         0.564813
 H        -0.606808         0.281462        -1.050216
 H         2.189202         0.868145        -2.062751
 H         1.822432         2.051882        -0.768197
 H         4.337596         2.249261         0.222529
 H         2.503690         0.147073         2.138373
