19
Iteration:  3695
 C         4.258417        -1.717327         0.742527
 C         3.147859        -0.814847         0.346966
 O         2.036523        -1.266416        -0.430449
 C         1.343855         0.042385        -0.104065
 C        -0.153019        -0.075838        -0.109171
 C         2.139197         0.918245        -1.011834
 C         3.356688         0.679223        -0.060175
 O         4.743318         1.229752        -0.032351
 C         2.461457         0.216200         1.107822
 H         3.956345        -2.640553         1.309760
 H         4.772660        -2.025122        -0.206861
 H         4.952028        -1.182826         1.389871
 H        -0.533772        -0.971772         0.384716
 H        -0.537986         0.733503         0.409734
 H        -0.548216        -0.083500        -1.113207
 H         2.394511         0.657797        -2.060095
 H         1.846521         1.982198        -0.925733
 H         4.815607         2.172595        -0.358226
 H         2.483515         0.529474         2.090812
