19
Iteration:  1429charge 0 multiplicity 1
 C         4.293985        -1.763690         0.521367
 C         3.180059        -0.768548         0.301353
 O         2.029080        -1.277443        -0.387782
 C         1.419450        -0.012988        -0.042862
 C        -0.143219        -0.027630        -0.144903
 C         2.206831         1.025889        -1.006702
 C         3.345499         0.668486        -0.029016
 O         4.605327         1.115925         0.081035
 C         2.453553         0.246376         1.143401
 H         3.933169        -2.498698         1.204302
 H         4.738284        -2.099177        -0.392625
 H         5.139023        -1.206491         0.891073
 H        -0.452419        -0.570634         0.756640
 H        -0.737548         0.997047        -0.098052
 H        -0.255930        -0.462533        -1.139407
 H         2.360928         0.713500        -2.025031
 H         1.916662         2.152538        -0.979544
 H         4.513354         2.071664         0.044074
 H         2.350693         0.628235         2.201231
