19
Iteration:  1049charge 0 multiplicity 1
 C         4.339843        -1.840857         0.635605
 C         3.243375        -0.740444         0.227199
 O         2.035564        -1.292266        -0.462511
 C         1.364784         0.034521        -0.096059
 C        -0.126569        -0.020991         0.004919
 C         2.128940         1.022465        -1.059053
 C         3.364140         0.681938        -0.127772
 O         4.675035         1.199617         0.182431
 C         2.387414         0.215076         1.017123
 H         3.729501        -2.621403         1.186434
 H         4.904347        -2.237455        -0.186533
 H         5.065771        -1.400354         1.300628
 H        -0.534719        -0.819914         0.643528
 H        -0.672546         0.971218         0.293372
 H        -0.499069        -0.473258        -0.927743
 H         2.142484         0.823887        -2.130412
 H         1.821071         2.117878        -0.902125
 H         4.562346         2.140050         0.374446
 H         2.423828         0.324498         2.064063
