19
Iteration:   994
 C         4.263513        -1.925167         0.626381
 C         3.201693        -0.759346         0.248470
 O         2.076754        -1.220500        -0.555135
 C         1.422112        -0.058189        -0.084070
 C        -0.125992        -0.046230        -0.065929
 C         2.246533         1.016934        -0.916280
 C         3.360195         0.740551         0.051437
 O         4.646548         1.351143        -0.059698
 C         2.331758         0.162691         1.140073
 H         3.886679        -2.592253         1.463515
 H         4.416200        -2.604654        -0.219373
 H         5.167601        -1.600827         1.083926
 H        -0.416142        -0.303287         1.011767
 H        -0.612146         0.989800        -0.329618
 H        -0.666578        -0.805620        -0.701752
 H         2.535533         0.588441        -1.871323
 H         1.732341         2.020697        -0.799983
 H         4.570559         2.196140         0.390178
 H         2.152521         0.019399         2.257958
