19
Iteration:  3000
 C         4.323631        -1.677108         0.511692
 C         3.126615        -0.845167         0.456669
 O         2.076989        -1.373564        -0.342756
 C         1.387827        -0.013698        -0.183467
 C        -0.038434         0.097407        -0.058107
 C         2.233405         0.947659        -1.039167
 C         3.374745         0.608279        -0.008629
 O         4.624940         1.208376         0.011554
 C         2.254115         0.250697         1.099333
 H         4.093303        -2.439794         1.245191
 H         4.304197        -2.182586        -0.443372
 H         5.404708        -1.325602         0.661075
 H        -0.392050        -0.546154         0.798634
 H        -0.442093         1.096746        -0.014091
 H        -0.475385        -0.159401        -1.041594
 H         2.354029         0.611443        -2.170457
 H         2.066846         2.063138        -1.042228
 H         4.490401         2.140174         0.236557
 H         2.153576         0.523647         2.195902
