19
Iteration:   793
 C         4.244296        -1.811197         0.511877
 C         3.214889        -0.809921         0.264149
 O         2.064061        -1.250333        -0.446129
 C         1.395011         0.087045        -0.097178
 C        -0.109557        -0.132772        -0.050957
 C         2.267199         1.074586        -0.944880
 C         3.353557         0.677312        -0.039224
 O         4.580327         1.179921         0.090170
 C         2.372425         0.254932         1.091333
 H         4.056399        -2.325638         1.437686
 H         4.492946        -2.479511        -0.306367
 H         5.213714        -1.285696         0.709672
 H        -0.376542        -0.521771         0.914673
 H        -0.712545         0.747904        -0.304014
 H        -0.272503        -1.072965        -0.673097
 H         2.389499         0.986240        -2.047963
 H         2.037469         2.118174        -0.780498
 H         4.410173         2.139672         0.219527
 H         2.327684         0.305453         2.163774
