19
Iteration:  1544charge 0 multiplicity 1
 C         4.161941        -1.941313         0.692735
 C         3.143049        -0.873666         0.376526
 O         2.056631        -1.254038        -0.480893
 C         1.430998        -0.005388        -0.160730
 C         0.022120        -0.038598         0.025748
 C         2.273500         1.012622        -1.018003
 C         3.336638         0.677670        -0.013039
 O         4.618845         1.409409        -0.066644
 C         2.364811         0.164731         1.046245
 H         3.572927        -2.587223         1.428079
 H         4.549040        -2.293760        -0.309985
 H         5.125420        -1.512324         1.060727
 H        -0.223594        -0.645814         0.887624
 H        -0.503224         0.788232         0.352365
 H        -0.508058        -0.205815        -0.951388
 H         2.396134         0.702554        -2.104645
 H         1.972526         2.021771        -0.926243
 H         4.600317         2.306632         0.266680
 H         2.148081         0.551943         2.116795
