19
Iteration:   217charge 0 multiplicity 1
 C         4.296341        -1.689136         0.578660
 C         3.167315        -0.883334         0.349754
 O         1.967656        -1.353393        -0.375557
 C         1.402938         0.050519        -0.157138
 C        -0.131483         0.049061        -0.166431
 C         2.284512         1.002151        -0.853946
 C         3.457560         0.607494        -0.085560
 O         4.531236         1.341484         0.047021
 C         2.398432         0.143585         1.106801
 H         4.361225        -2.632507         1.084049
 H         4.519254        -2.070421        -0.575917
 H         5.192490        -1.164656         0.846821
 H        -0.331056        -0.796784         0.565966
 H        -0.611494         1.104144         0.134459
 H        -0.580226        -0.180978        -1.142249
 H         2.272762         0.953325        -1.977097
 H         1.959608         2.013387        -0.599417
 H         5.413065         0.896807         0.000491
 H         2.038200         0.271641         2.119859
