19
Iteration:   868charge 0 multiplicity 1
 C         4.254055        -1.789898         0.680014
 C         3.153007        -0.929654         0.247329
 O         1.978543        -1.276590        -0.467394
 C         1.438954         0.023608        -0.100197
 C        -0.117032        -0.014662        -0.071160
 C         2.163372         1.021264        -0.934072
 C         3.437122         0.631838        -0.122034
 O         4.589672         1.347725         0.074884
 C         2.546349         0.145029         1.052282
 H         3.925484        -2.795719         1.063897
 H         5.010579        -2.048558        -0.085023
 H         4.874696        -1.215015         1.423636
 H        -0.399721        -0.941848         0.354759
 H        -0.522872         0.785251         0.532348
 H        -0.579910         0.177332        -1.062504
 H         2.174652         0.893207        -2.037239
 H         1.820216         2.021925        -0.814555
 H         4.329083         2.274368         0.244423
 H         2.498712         0.222429         2.090770
