19
Iteration:   621
 C         4.265232        -1.735170         0.637458
 C         3.170348        -0.839676         0.211232
 O         1.964890        -1.304435        -0.582734
 C         1.380624         0.013157        -0.103504
 C        -0.076151        -0.045591        -0.055051
 C         2.241815         1.029228        -0.930891
 C         3.352423         0.715505         0.072620
 O         4.608370         1.236518         0.006397
 C         2.470569         0.199401         1.139871
 H         3.960730        -2.373330         1.425512
 H         4.596499        -2.378238        -0.274281
 H         5.170285        -1.128278         1.019395
 H        -0.357666        -0.434914         0.891605
 H        -0.511208         0.894791        -0.091972
 H        -0.364137        -0.735681        -0.868059
 H         2.544161         0.674527        -1.907410
 H         1.737552         2.015889        -0.914783
 H         4.724470         2.059025         0.496729
 H         2.395794         0.015756         2.235272
