19
Iteration:   989charge 0 multiplicity 1
 C         4.249376        -1.943560         0.613898
 C         3.219629        -0.809849         0.282723
 O         2.094791        -1.208224        -0.569946
 C         1.398501        -0.072546        -0.086440
 C        -0.138523        -0.042584        -0.072024
 C         2.191132         1.019806        -0.924691
 C         3.356785         0.790131         0.075288
 O         4.646214         1.332687        -0.066968
 C         2.344419         0.162774         1.168352
 H         3.905514        -2.522737         1.449540
 H         4.533030        -2.674643        -0.187366
 H         5.199654        -1.488352         1.057432
 H        -0.376767        -0.189683         0.955893
 H        -0.515648         0.885002        -0.332478
 H        -0.547738        -0.692144        -0.833471
 H         2.515934         0.674008        -1.934514
 H         1.734764         1.982604        -0.925029
 H         4.667702         2.197934         0.409737
 H         2.304440         0.156513         2.296563
