19
Iteration:  3222charge 0 multiplicity 1
 C         4.271631        -1.770076         0.681036
 C         3.184556        -0.837350         0.356281
 O         2.042514        -1.296207        -0.413833
 C         1.386325         0.089466        -0.090633
 C        -0.115056        -0.062731        -0.095358
 C         2.225546         0.993696        -0.989635
 C         3.385906         0.547399        -0.146507
 O         4.646073         1.226725         0.032687
 C         2.379122         0.326611         1.123960
 H         3.964418        -2.623585         1.325097
 H         4.619948        -2.437772        -0.167751
 H         5.133705        -1.280335         1.045090
 H        -0.741245        -0.684395         0.529654
 H        -0.711887         0.970087        -0.239470
 H        -0.438232        -0.616634        -0.938398
 H         2.316607         0.928056        -2.104629
 H         1.789267         2.038132        -0.733326
 H         4.587839         2.110227        -0.355232
 H         2.580100         0.824499         2.132611
