19
Iteration:   639charge 0 multiplicity 1
 C         4.179679        -1.824123         0.677432
 C         3.185693        -0.744997         0.263526
 O         2.178087        -1.213876        -0.567790
 C         1.396896        -0.013499        -0.129235
 C        -0.183430        -0.147823         0.031957
 C         2.247450         1.121748        -0.925948
 C         3.373049         0.691177         0.015534
 O         4.662137         1.222498        -0.088119
 C         2.346274         0.124421         1.083988
 H         3.742809        -2.535769         1.400764
 H         4.503618        -2.374344        -0.153392
 H         4.939445        -1.291865         1.213889
 H        -0.503972        -0.708983         0.937315
 H        -0.663723         0.902442         0.176295
 H        -0.691448        -0.445019        -0.897600
 H         2.461190         0.870530        -1.992345
 H         2.058990         2.131609        -0.609144
 H         4.684203         1.991335         0.488427
 H         2.216995         0.403197         2.168495
