19
Iteration:   132charge 0 multiplicity 1
 C         4.225244        -1.985517         0.727702
 C         3.094323        -0.966591         0.292642
 O         2.030276        -1.291798        -0.514237
 C         1.394162         0.122551        -0.278458
 C        -0.013177        -0.064740         0.059567
 C         2.216387         1.156719        -1.047073
 C         3.413559         0.656648        -0.088373
 O         4.529657         1.477591         0.160620
 C         2.456229         0.141515         1.017216
 H         3.803256        -2.835444         1.229643
 H         4.844941        -2.300900        -0.059891
 H         4.836539        -1.408053         1.405127
 H         0.090746        -0.787979         0.828348
 H        -0.436164         0.745417         0.546081
 H        -0.642426        -0.434204        -0.720750
 H         2.145101         1.057138        -2.110897
 H         1.990418         2.190960        -0.742494
 H         5.197490         1.250947        -0.529122
 H         2.494184         0.396497         2.068577
