19
Iteration:  4977charge 0 multiplicity 1
 C         4.185738        -1.876382         0.731748
 C         3.205210        -0.788246         0.284800
 O         2.099243        -1.257726        -0.541136
 C         1.359091         0.015288        -0.113160
 C        -0.082732        -0.066511        -0.066922
 C         2.181322         1.063780        -0.863406
 C         3.382689         0.617948        -0.041632
 O         4.549965         1.371519        -0.012178
 C         2.479076         0.212432         1.087274
 H         4.129297        -2.332983         1.757559
 H         4.040828        -2.714812         0.087331
 H         5.168520        -1.543418         0.608014
 H        -0.566246        -0.935385         0.320161
 H        -0.243655         0.940079         0.397608
 H        -0.386132         0.030215        -1.221094
 H         2.267554         0.874817        -1.956963
 H         1.860145         2.061680        -0.736266
 H         5.206204         0.771608        -0.299182
 H         2.340090         0.462647         2.129716
