19
Iteration:   455
 C         4.306284        -1.806695         0.665550
 C         3.148422        -0.886630         0.305560
 O         2.010019        -1.248361        -0.580861
 C         1.414273         0.139759        -0.137067
 C        -0.129603        -0.079903         0.005661
 C         2.276341         1.065081        -0.976949
 C         3.432596         0.664438        -0.018521
 O         4.608210         1.314099        -0.004567
 C         2.352436         0.114246         1.106559
 H         3.933494        -2.765958         1.299863
 H         4.727852        -2.457367        -0.211250
 H         5.117329        -1.400161         1.351613
 H        -0.133966        -0.772589         0.864441
 H        -0.800010         0.792514         0.358977
 H        -0.576295        -0.484362        -0.853917
 H         2.343538         0.496888        -1.954759
 H         2.102971         2.138461        -0.992606
 H         4.376816         2.172095         0.350101
 H         2.139911         0.276554         2.193379
