19
Iteration:  3388
 C         4.233860        -1.708440         0.621426
 C         3.172358        -0.835125         0.383041
 O         2.018175        -1.333691        -0.322564
 C         1.353612        -0.010361        -0.029686
 C        -0.103169        -0.043264        -0.211763
 C         2.175041         1.067129        -1.044472
 C         3.410542         0.675524        -0.067405
 O         4.704244         1.172161        -0.021522
 C         2.416703         0.288471         1.129683
 H         3.943303        -2.507788         1.222618
 H         4.304481        -2.170563        -0.354400
 H         5.255589        -1.353673         0.957775
 H        -0.527023        -0.515860         0.737538
 H        -0.553808         1.004765        -0.447200
 H        -0.330516        -0.840660        -0.928979
 H         2.291826         0.749677        -2.080187
 H         1.983780         2.154359        -1.034692
 H         4.586754         2.038312         0.358812
 H         2.313159         0.380150         2.169040
