19
Iteration:  3792charge 0 multiplicity 1
 C         4.215793        -1.912088         0.732385
 C         3.199290        -0.842923         0.352199
 O         2.079230        -1.352769        -0.427760
 C         1.421327         0.007398        -0.224680
 C        -0.051080        -0.057322        -0.039214
 C         2.131991         0.992975        -1.087841
 C         3.303010         0.780813        -0.031040
 O         4.608455         1.299219        -0.022813
 C         2.515681         0.324608         1.104422
 H         3.872684        -2.567213         1.553725
 H         4.485244        -2.526948        -0.142196
 H         5.085586        -1.489168         1.174797
 H        -0.596814        -0.452115         0.884566
 H        -0.344367         0.998259         0.037525
 H        -0.582683        -0.508795        -0.854266
 H         2.241221         0.587466        -2.138337
 H         1.612014         1.946997        -0.994040
 H         4.587299         2.211128         0.406734
 H         2.540395         0.698984         2.059380
