19
Iteration:  4261
 C         4.242356        -1.761827         0.616198
 C         3.132428        -0.847017         0.407160
 O         2.125567        -1.308752        -0.389277
 C         1.403288        -0.015300        -0.177026
 C        -0.024109         0.032261        -0.050837
 C         2.213879         0.846503        -1.048477
 C         3.323516         0.584942        -0.049824
 O         4.591010         1.322526        -0.054055
 C         2.362465         0.380850         1.103143
 H         4.115608        -2.803597         0.875467
 H         4.880047        -1.774391        -0.291292
 H         4.800873        -1.556890         1.482722
 H        -0.417983        -0.750159         0.597413
 H        -0.244275         0.988981         0.333712
 H        -0.595873        -0.071634        -1.031656
 H         2.250599         0.597019        -2.162893
 H         1.867675         1.866591        -0.863577
 H         4.793537         1.700473         0.831663
 H         1.971119         0.503979         2.171618
