19
Iteration:  2736
 C         4.165916        -1.857498         0.809786
 C         3.116707        -0.808423         0.353487
 O         2.080083        -1.190153        -0.593027
 C         1.437607         0.022360        -0.132554
 C        -0.113651        -0.139596         0.053776
 C         2.300862         1.062855        -0.983828
 C         3.340590         0.734691        -0.087221
 O         4.685494         1.230178        -0.119116
 C         2.345936         0.165135         1.113567
 H         3.618151        -2.628691         1.410986
 H         4.712040        -2.290011        -0.062254
 H         4.940007        -1.223238         1.180610
 H        -0.209917        -0.862896         0.875488
 H        -0.597192         0.698581         0.440903
 H        -0.599969        -0.366226        -1.025073
 H         2.359921         0.814597        -2.064024
 H         2.178077         2.128530        -0.760714
 H         4.645424         2.225729         0.065296
 H         2.310219         0.274544         2.256193
