19
Iteration:  3573
 C         4.320447        -1.765080         0.640607
 C         3.199058        -0.763651         0.271413
 O         2.050509        -1.378992        -0.322724
 C         1.321949         0.006727        -0.144569
 C        -0.146713         0.008855        -0.127338
 C         2.205556         1.019294        -1.039308
 C         3.324399         0.670531        -0.074044
 O         4.676778         1.188895         0.072055
 C         2.431606         0.253872         1.098192
 H         4.078872        -2.426631         1.453472
 H         4.553576        -2.351051        -0.248711
 H         5.234977        -1.254558         1.137911
 H        -0.457989        -0.486838         0.805968
 H        -0.516750         1.034858        -0.271113
 H        -0.510186        -0.672815        -0.821469
 H         2.309571         0.760628        -2.116861
 H         1.815278         2.041718        -1.001215
 H         4.460952         2.125048        -0.159589
 H         2.253506         0.662154         2.196468
