19
Iteration:  3540
 C         4.320763        -1.733203         0.632570
 C         3.101763        -0.824979         0.328514
 O         2.017323        -1.312522        -0.398844
 C         1.363596         0.039856        -0.103526
 C        -0.063832        -0.047520        -0.168048
 C         2.241929         0.938849        -0.936021
 C         3.298750         0.636766         0.021786
 O         4.710050         1.201309        -0.096297
 C         2.365571         0.344553         1.153736
 H         3.903686        -2.535128         1.209806
 H         4.768509        -2.220494        -0.245378
 H         5.262504        -1.230023         1.091891
 H        -0.375991        -0.683047         0.667126
 H        -0.698499         0.871031        -0.112395
 H        -0.290524        -0.427196        -1.107368
 H         2.296276         0.520274        -1.949263
 H         1.892741         1.971552        -0.899450
 H         4.580698         2.028878         0.344206
 H         2.211837         0.792836         2.233094
