19
Iteration:  2163
 C         4.363099        -1.778908         0.633020
 C         3.161902        -0.853413         0.339652
 O         2.049124        -1.382348        -0.374807
 C         1.397353         0.025038        -0.095921
 C        -0.126298         0.105684        -0.038919
 C         2.268609         0.985374        -1.116176
 C         3.342056         0.701310        -0.053089
 O         4.586929         1.207452         0.024872
 C         2.345642         0.218566         1.063047
 H         4.224738        -2.683692         1.351303
 H         4.506745        -2.186847        -0.413420
 H         5.234922        -1.147002         0.795388
 H        -0.542721        -0.604788         0.776737
 H        -0.503624         1.129108         0.221913
 H        -0.711477        -0.325847        -0.856434
 H         2.465598         0.692674        -2.226937
 H         2.093582         2.075706        -0.875331
 H         4.604443         2.108646         0.348848
 H         2.153104         0.453768         2.157486
