19
Iteration:   214
 C         4.295859        -1.685081         0.567443
 C         3.138169        -0.879545         0.346362
 O         1.998184        -1.339850        -0.376298
 C         1.389149         0.056937        -0.162304
 C        -0.105422         0.038288        -0.160828
 C         2.282031         1.017736        -0.832586
 C         3.449459         0.580674        -0.061024
 O         4.536322         1.331551         0.032639
 C         2.373253         0.142340         1.100332
 H         4.337307        -2.633504         1.167537
 H         4.529745        -2.033506        -0.533054
 H         5.229738        -1.208792         0.849054
 H        -0.356588        -0.821392         0.557824
 H        -0.494001         1.119998         0.155723
 H        -0.558307        -0.186564        -1.139651
 H         2.292958         0.905181        -2.001225
 H         1.922405         2.028815        -0.603151
 H         5.389066         0.947485        -0.124197
 H         2.009138         0.326074         2.067202
