19
Iteration:  2511
 C         4.273401        -1.730251         0.678573
 C         3.156037        -0.859578         0.154936
 O         1.932120        -1.456241        -0.362270
 C         1.377408         0.025873        -0.050730
 C        -0.125711         0.015041        -0.090734
 C         2.259094         1.042519        -0.998044
 C         3.434151         0.638977        -0.106002
 O         4.650508         1.258851         0.066801
 C         2.497146         0.296458         1.045862
 H         3.755643        -2.623779         1.141842
 H         4.796746        -2.007148        -0.248616
 H         4.944504        -1.388237         1.440603
 H        -0.486948        -0.662742         0.825722
 H        -0.396555         1.089569         0.168276
 H        -0.539219        -0.453594        -0.924349
 H         2.189184         0.850547        -2.108788
 H         1.781487         2.086175        -0.795655
 H         4.432977         2.183374        -0.052518
 H         2.475561         0.492091         2.133299
