19
Iteration:  1505
 C         4.215951        -1.785568         0.771612
 C         3.179895        -0.856936         0.211812
 O         1.996448        -1.258336        -0.484187
 C         1.420643        -0.030676        -0.016538
 C        -0.092559        -0.031428        -0.052907
 C         2.067414         0.974488        -1.020609
 C         3.450939         0.666170        -0.143075
 O         4.677488         1.301363         0.030353
 C         2.509168         0.175841         1.010124
 H         3.590487        -2.582810         1.050835
 H         4.981105        -2.379867         0.157508
 H         4.771378        -1.258697         1.565824
 H        -0.422467        -0.997954         0.392850
 H        -0.313793         1.003752         0.538403
 H        -0.388202         0.208471        -1.096636
 H         2.027222         0.878926        -2.079301
 H         1.821695         2.019942        -0.554436
 H         4.428806         2.061750         0.607696
 H         2.438609         0.575686         2.002798
