19
Iteration:  1415
 C         4.310072        -1.803385         0.560651
 C         3.218311        -0.875796         0.217848
 O         1.932265        -1.258486        -0.328657
 C         1.320691        -0.019075        -0.005630
 C        -0.103543        -0.059328        -0.173353
 C         2.230220         1.055635        -0.975180
 C         3.345736         0.651181        -0.108533
 O         4.661158         1.256713         0.109141
 C         2.482007         0.258554         1.069262
 H         4.079042        -2.619984         1.250843
 H         4.620890        -2.430441        -0.328109
 H         5.086441        -1.214892         1.020486
 H        -0.691159        -0.610807         0.607066
 H        -0.389428         1.010690        -0.236937
 H        -0.572754        -0.665669        -1.080553
 H         2.271146         0.755568        -2.062104
 H         1.878008         2.096516        -0.810888
 H         4.562103         2.160423         0.521732
 H         2.748419         0.616209         2.074122
