19
Iteration:  1830
 C         4.245191        -1.812098         0.583713
 C         3.172221        -0.802781         0.385815
 O         2.039196        -1.275573        -0.418626
 C         1.411159        -0.031314        -0.076931
 C        -0.090864        -0.009289        -0.024389
 C         2.289586         0.943660        -1.016083
 C         3.367784         0.639045        -0.071197
 O         4.602346         1.267856        -0.006698
 C         2.348798         0.279189         1.050818
 H         3.739666        -2.526841         1.149835
 H         4.611686        -2.330407        -0.321131
 H         5.166720        -1.408603         1.055892
 H        -0.415456        -0.794258         0.635014
 H        -0.503695         0.979718         0.317807
 H        -0.418968        -0.172568        -1.122772
 H         2.575316         0.602606        -2.018494
 H         2.105786         2.068184        -1.007996
 H         4.357432         2.125231         0.444278
 H         2.320818         0.665285         2.150612
