19
Iteration:  3160
 C         4.348330        -1.748791         0.674787
 C         3.196980        -0.808614         0.368167
 O         2.031272        -1.313419        -0.399903
 C         1.388601         0.006030        -0.129816
 C        -0.153227         0.060863        -0.074775
 C         2.163310         0.899325        -1.022051
 C         3.377088         0.632312        -0.107520
 O         4.603741         1.181374         0.014923
 C         2.411837         0.267536         1.018367
 H         4.133590        -2.396874         1.508117
 H         4.661230        -2.242166        -0.242407
 H         5.254347        -1.108111         0.963637
 H        -0.632801        -0.495698         0.738588
 H        -0.422290         1.067592         0.054019
 H        -0.453425        -0.162838        -1.115975
 H         2.439555         0.833389        -2.036020
 H         1.764014         1.878846        -0.739489
 H         4.588843         1.856617         0.703258
 H         2.440449         0.732673         2.055208
