19
Iteration:  1711
 C         4.092973        -1.886521         0.780010
 C         3.159187        -0.856711         0.347915
 O         2.045855        -1.311270        -0.502779
 C         1.438915         0.032517        -0.123636
 C        -0.017710        -0.075023         0.033781
 C         2.168360         1.023628        -1.068636
 C         3.411519         0.679327        -0.057783
 O         4.672380         1.373674        -0.046680
 C         2.423744         0.222991         1.017313
 H         3.571983        -2.777638         1.065089
 H         4.816647        -2.168532        -0.051642
 H         4.948029        -1.535752         1.380140
 H        -0.219405        -0.831023         0.745461
 H        -0.482644         0.803856         0.516100
 H        -0.608897        -0.186119        -0.917326
 H         2.390380         0.774521        -2.069311
 H         1.922004         2.095147        -0.926158
 H         4.490061         2.267761         0.252267
 H         2.290817         0.441955         2.100407
