19
Iteration:  3745
 C         4.383090        -1.748271         0.703089
 C         3.118247        -0.940530         0.404086
 O         1.972479        -1.378804        -0.427292
 C         1.422429         0.060846        -0.161137
 C        -0.130566         0.025101        -0.115915
 C         2.200245         0.989608        -1.017857
 C         3.333001         0.654493        -0.089779
 O         4.657930         1.274451        -0.018618
 C         2.441010         0.265635         1.068116
 H         4.308171        -2.475646         1.479420
 H         4.688535        -2.194975        -0.225513
 H         5.164804        -1.011497         1.091430
 H        -0.447849        -0.489031         0.853774
 H        -0.824761         0.980314         0.011312
 H        -0.597602        -0.660290        -0.867132
 H         2.266221         0.617022        -2.031759
 H         1.803836         2.000604        -0.833047
 H         4.660615         2.077253         0.497164
 H         2.413065         0.701317         2.124448
