19
Iteration:  1087charge 0 multiplicity 1
 C         4.445277        -1.736964         0.627009
 C         3.127771        -0.878184         0.370383
 O         1.943237        -1.291714        -0.491916
 C         1.429790        -0.002189        -0.143435
 C        -0.058179         0.030035        -0.078837
 C         2.286134         1.042406        -0.966833
 C         3.314965         0.646690         0.071640
 O         4.583883         1.219574        -0.105161
 C         2.276061         0.197638         1.131464
 H         4.331117        -2.709663         1.038140
 H         4.886160        -2.023943        -0.385977
 H         5.036019        -1.214087         1.437824
 H        -0.238505        -1.040820         0.205703
 H        -0.434158         0.802383         0.558974
 H        -0.432521         0.292034        -1.115798
 H         2.571039         0.730679        -2.014089
 H         1.846183         1.968745        -0.743421
 H         4.793755         1.908945         0.577541
 H         2.067711         0.408266         2.309773
