19
Iteration:  2508charge 0 multiplicity 1
 C         4.276899        -1.712990         0.683054
 C         3.144462        -0.877829         0.126736
 O         1.929359        -1.455956        -0.354646
 C         1.364713         0.031919        -0.054202
 C        -0.118214         0.013191        -0.069818
 C         2.253287         1.014222        -0.995603
 C         3.442087         0.622445        -0.112449
 O         4.657891         1.250311         0.087753
 C         2.494412         0.342884         1.047633
 H         3.845407        -2.710074         1.039458
 H         4.848824        -1.979933        -0.247976
 H         4.938886        -1.302421         1.411377
 H        -0.516755        -0.575128         0.762856
 H        -0.439124         0.998162         0.098633
 H        -0.560378        -0.369467        -1.006312
 H         2.247941         0.945661        -2.144111
 H         1.718792         2.002838        -0.759296
 H         4.364345         2.168753        -0.025770
 H         2.597477         0.461670         2.098774
