19
Iteration:  4185
 C         4.271902        -1.794670         0.746324
 C         3.243046        -0.826245         0.322752
 O         2.130466        -1.258324        -0.441720
 C         1.392017         0.002365        -0.161344
 C        -0.091038        -0.078912        -0.059395
 C         2.228797         1.086013        -0.991327
 C         3.308340         0.677463        -0.067002
 O         4.568438         1.158242        -0.042016
 C         2.342980         0.268573         1.071038
 H         4.004406        -2.393371         1.642993
 H         4.553698        -2.609231         0.044384
 H         5.150141        -1.209657         0.987743
 H        -0.382319        -0.893576         0.624532
 H        -0.432899         0.882549         0.192302
 H        -0.648276        -0.224933        -1.003757
 H         2.211332         0.817149        -2.072948
 H         1.777788         2.045051        -0.753262
 H         4.605226         2.145737        -0.018510
 H         2.359651         0.587401         2.217615
