19
Iteration:  4750charge 0 multiplicity 1
 C         4.359519        -1.734400         0.569300
 C         3.223965        -0.850960         0.230939
 O         1.956715        -1.426682        -0.394036
 C         1.443264        -0.017378        -0.043813
 C        -0.057054         0.122621        -0.084083
 C         2.151652         0.894313        -1.038178
 C         3.344506         0.605420        -0.017148
 O         4.567512         1.397609         0.135419
 C         2.390818         0.224021         1.075888
 H         4.068781        -1.989971         1.567500
 H         4.631543        -2.651537        -0.031727
 H         5.093795        -0.986398         0.669230
 H        -0.493309        -0.571996         0.510517
 H        -0.127645         1.127360         0.309429
 H        -0.396629         0.190253        -1.183011
 H         2.314073         0.706695        -2.144716
 H         1.739565         1.903434        -0.895722
 H         5.004483         0.906497        -0.634969
 H         2.222791         0.469415         2.124765
