19
Iteration:  4910charge 0 multiplicity 1
 C         4.348894        -1.741214         0.578228
 C         3.190468        -0.859681         0.352436
 O         2.004827        -1.312456        -0.390602
 C         1.423107         0.060346        -0.154749
 C        -0.099927         0.050044        -0.052268
 C         2.170938         0.974859        -1.038767
 C         3.353070         0.638932        -0.042671
 O         4.567621         1.255991         0.152148
 C         2.411183         0.202711         1.067034
 H         4.100156        -2.816525         0.773929
 H         4.700982        -1.890591        -0.394188
 H         5.168331        -1.449712         1.149052
 H        -0.534788        -0.405153         0.871024
 H        -0.616648         1.037870        -0.089038
 H        -0.675508        -0.531637        -0.826538
 H         2.435613         0.656748        -2.050478
 H         1.847663         1.990414        -1.062718
 H         5.191015         1.308291        -0.640227
 H         2.377474         0.657436         2.045751
