19
Iteration:  3431
 C         4.208704        -1.828061         0.755334
 C         3.160293        -0.846930         0.340091
 O         2.030428        -1.365369        -0.435216
 C         1.424146         0.094605        -0.144616
 C        -0.060095        -0.040073        -0.004176
 C         2.271887         1.045246        -1.073373
 C         3.362396         0.643504        -0.144732
 O         4.597337         1.270770        -0.003895
 C         2.414823         0.233812         1.063568
 H         3.893461        -2.614468         1.385103
 H         4.689227        -2.227950        -0.121699
 H         4.922233        -1.187962         1.357232
 H        -0.448100        -0.674859         0.832670
 H        -0.398010         1.076360         0.028654
 H        -0.443173        -0.426537        -0.953688
 H         2.207818         0.888311        -2.124397
 H         2.031806         2.085761        -0.909858
 H         4.348557         2.148568         0.364002
 H         2.498040         0.379973         2.116367
