19
Iteration:   736charge 0 multiplicity 1
 C         4.362991        -1.718328         0.513544
 C         3.197247        -0.775314         0.377511
 O         2.051139        -1.388292        -0.385131
 C         1.480086        -0.087383        -0.203337
 C        -0.074205         0.095003        -0.091425
 C         2.205012         1.061923        -0.961508
 C         3.301478         0.635882        -0.059012
 O         4.500983         1.225988         0.029073
 C         2.384960         0.135932         1.082247
 H         3.931069        -2.631470         1.156991
 H         4.674198        -2.086393        -0.459148
 H         5.155445        -1.246466         1.119682
 H        -0.538268        -0.614620         0.637373
 H        -0.215638         1.042429         0.570787
 H        -0.724575         0.230311        -0.979332
 H         2.592392         0.852844        -2.005127
 H         1.969341         2.101187        -0.665067
 H         4.518714         1.897515         0.721036
 H         2.241230         0.433048         2.156511
