19
Iteration:  4700charge 0 multiplicity 1
 C         4.271959        -1.810691         0.627297
 C         3.196231        -0.827386         0.278268
 O         1.980637        -1.268849        -0.373942
 C         1.389871         0.005739        -0.208513
 C        -0.039881        -0.013261         0.038950
 C         2.250399         0.911374        -0.998221
 C         3.387147         0.580516        -0.122687
 O         4.542921         1.346514         0.170560
 C         2.412949         0.305191         0.966261
 H         3.907429        -2.754788         1.102391
 H         4.759262        -2.046730        -0.311157
 H         4.956315        -1.105881         1.231421
 H        -0.115767        -0.395294         1.129994
 H        -0.412953         1.024532        -0.108461
 H        -0.502820        -0.712450        -0.641726
 H         2.355983         0.745174        -2.060294
 H         1.782861         1.900828        -0.881707
 H         5.054341         1.261193        -0.648016
 H         2.140353         0.591001         1.931327
