19
Iteration:  1400
 C         4.277453        -1.849057         0.580012
 C         3.172814        -0.859836         0.292520
 O         1.941859        -1.358736        -0.363095
 C         1.426322         0.058665        -0.107056
 C        -0.148779         0.018787        -0.141902
 C         2.154558         1.014076        -0.948782
 C         3.456875         0.654218        -0.099020
 O         4.636120         1.349212         0.071507
 C         2.561488         0.212549         1.039440
 H         3.950657        -2.516915         1.471080
 H         4.527295        -2.320375        -0.386839
 H         5.191118        -1.309653         1.057557
 H        -0.625891        -0.557928         0.676471
 H        -0.792120         0.871435        -0.200404
 H        -0.283417        -0.761000        -0.978393
 H         2.100798         1.009745        -2.055869
 H         1.844299         2.011880        -0.727279
 H         4.422653         1.937317         0.806056
 H         2.343784         0.360256         2.078075
