19
Iteration:  2386charge 0 multiplicity 1
 C         4.120176        -1.892612         0.727981
 C         3.176510        -0.818322         0.267492
 O         2.083945        -1.364697        -0.457472
 C         1.398971         0.056614        -0.041418
 C        -0.080806        -0.027509        -0.049460
 C         2.196293         1.014818        -0.924518
 C         3.427055         0.731928        -0.125595
 O         4.642969         1.312816        -0.020045
 C         2.491547         0.225386         1.048293
 H         3.750732        -2.399823         1.585093
 H         4.185042        -2.624590        -0.063623
 H         5.079579        -1.348695         0.923365
 H        -0.388203        -0.685387         0.657672
 H        -0.581343         0.857679         0.183279
 H        -0.457975        -0.344394        -1.064926
 H         2.129264         0.869403        -2.057176
 H         1.739184         2.025551        -0.761959
 H         4.654575         2.214100        -0.298888
 H         2.241686         0.345878         2.162301
