19
Iteration:   136
 C         4.212877        -1.937268         0.707708
 C         3.065438        -0.981562         0.309668
 O         2.003489        -1.286564        -0.517562
 C         1.388202         0.113235        -0.263436
 C        -0.022913        -0.088036         0.049294
 C         2.231216         1.161744        -0.990376
 C         3.431363         0.658299        -0.100333
 O         4.535025         1.463135         0.164786
 C         2.495496         0.160492         0.957139
 H         3.743822        -2.810623         1.297826
 H         4.943718        -2.370017        -0.013720
 H         4.900204        -1.418526         1.506079
 H         0.046984        -0.922654         0.790792
 H        -0.398242         0.819648         0.598291
 H        -0.654083        -0.533155        -0.822670
 H         2.286250         0.973518        -2.113006
 H         1.915605         2.191750        -0.662222
 H         5.137265         1.276988        -0.560625
 H         2.564410         0.500206         2.042098
