19
Iteration:  2592charge 0 multiplicity 1
 C         4.257270        -1.832637         0.774733
 C         3.157894        -0.803917         0.194120
 O         1.925010        -1.344149        -0.437028
 C         1.375192         0.073065        -0.122227
 C        -0.107919        -0.076977        -0.012301
 C         2.122011         1.060444        -0.975003
 C         3.401235         0.674371        -0.143256
 O         4.680483         1.224309         0.080125
 C         2.564636         0.261027         0.987696
 H         3.972415        -2.314429         1.697405
 H         4.508044        -2.644601         0.078308
 H         5.182004        -1.196587         0.815243
 H        -0.323591        -0.955197         0.502346
 H        -0.672845         0.810074         0.305362
 H        -0.180691        -0.130641        -1.198672
 H         2.253895         0.858998        -2.010596
 H         1.835432         2.052476        -0.758221
 H         4.611870         2.179790         0.283118
 H         2.609889         0.553169         2.007758
