19
Iteration:  4909
 C         4.356711        -1.739625         0.578582
 C         3.183334        -0.870339         0.342531
 O         2.007478        -1.312598        -0.391555
 C         1.422528         0.047220        -0.147430
 C        -0.099672         0.055168        -0.056411
 C         2.172440         0.983425        -1.041512
 C         3.353670         0.641955        -0.046724
 O         4.571207         1.261206         0.152886
 C         2.399476         0.204320         1.068456
 H         4.109474        -2.810768         0.763484
 H         4.718758        -1.914683        -0.391460
 H         5.182684        -1.450461         1.209880
 H        -0.545507        -0.399163         0.905746
 H        -0.585389         1.070601        -0.089478
 H        -0.680606        -0.523385        -0.775133
 H         2.394952         0.607038        -2.064370
 H         1.865449         2.026800        -1.096238
 H         5.184821         1.290930        -0.629124
 H         2.360849         0.625876         2.086677
