19
Iteration:  3196
 C         4.328343        -1.650865         0.674969
 C         3.166988        -0.838079         0.346389
 O         1.947069        -1.282792        -0.361390
 C         1.422759         0.042961        -0.109859
 C        -0.090043         0.026685        -0.121363
 C         2.295003         0.959057        -1.019833
 C         3.331254         0.695373         0.001793
 O         4.644783         1.142937        -0.039962
 C         2.375023         0.181295         1.111359
 H         4.300490        -2.551592         1.295001
 H         4.357556        -2.219842        -0.275266
 H         5.303739        -1.132690         0.772801
 H        -0.644271        -0.520194         0.669460
 H        -0.628681         0.921992        -0.335174
 H        -0.430505        -0.724816        -0.964529
 H         2.519928         0.745325        -2.056304
 H         1.688184         1.825104        -0.965957
 H         4.654805         2.119086         0.018155
 H         2.188571         0.340888         2.128177
