19
Iteration:  3793
 C         4.212370        -1.916240         0.738574
 C         3.203813        -0.853299         0.359031
 O         2.087736        -1.350356        -0.428129
 C         1.428443         0.004284        -0.225662
 C        -0.054064        -0.058995        -0.026080
 C         2.131484         1.004465        -1.090113
 C         3.303097         0.782834        -0.038956
 O         4.613539         1.301009        -0.026692
 C         2.496526         0.323616         1.102952
 H         3.849985        -2.610119         1.554883
 H         4.493820        -2.518363        -0.160399
 H         5.091058        -1.485393         1.136115
 H        -0.593191        -0.428708         0.865765
 H        -0.354128         0.946351         0.030815
 H        -0.569723        -0.468523        -0.899525
 H         2.223641         0.570746        -2.133577
 H         1.603361         1.963205        -0.975348
 H         4.614579         2.234899         0.370779
 H         2.496357         0.708739         2.104761
