19
Iteration:   569
 C         4.390529        -1.771714         0.429039
 C         3.224518        -0.809185         0.370355
 O         2.040092        -1.339332        -0.349544
 C         1.365945        -0.063612        -0.184339
 C        -0.111816         0.084397        -0.131867
 C         2.214400         0.979326        -1.043392
 C         3.316912         0.662293         0.018151
 O         4.566350         1.221232         0.125238
 C         2.396105         0.230261         1.158519
 H         4.089408        -2.648273         1.001296
 H         4.468243        -2.117284        -0.617682
 H         5.299233        -1.317382         0.853688
 H        -0.459556        -0.484631         0.754963
 H        -0.440531         1.089024         0.064914
 H        -0.570726        -0.251071        -1.100379
 H         2.301218         0.648763        -2.068774
 H         1.754378         1.975935        -0.821563
 H         4.656988         2.102942         0.471450
 H         2.369632         0.707050         2.119588
