19
Iteration:   207
 C         4.334112        -1.727852         0.547788
 C         3.086056        -0.860881         0.361470
 O         2.041819        -1.320581        -0.410729
 C         1.388296         0.027233        -0.131822
 C        -0.061244         0.016379        -0.146276
 C         2.257911         1.056677        -0.878351
 C         3.385817         0.549020         0.004227
 O         4.569468         1.336273         0.017250
 C         2.326237         0.161437         1.094476
 H         4.105104        -2.512969         1.250310
 H         4.610092        -2.111442        -0.499485
 H         5.172697        -1.125775         0.903904
 H        -0.525287        -0.711750         0.539694
 H        -0.356173         1.026733         0.244914
 H        -0.454883        -0.172466        -1.144868
 H         2.374316         0.900931        -1.938230
 H         1.955810         2.069727        -0.600850
 H         5.324769         0.853437        -0.348695
 H         2.131176         0.434455         2.135348
