19
Iteration:  1069
 C         4.221500        -1.660896         0.584856
 C         3.098416        -0.769147         0.317287
 O         2.085049        -1.327609        -0.501178
 C         1.421186        -0.022067        -0.125717
 C        -0.126673        -0.016528        -0.053266
 C         2.231379         0.966476        -0.971995
 C         3.377609         0.670919         0.021857
 O         4.648549         1.199224         0.011259
 C         2.426648         0.181064         1.094975
 H         3.967246        -2.631509         1.044024
 H         4.739107        -1.850946        -0.396541
 H         4.872363        -1.176370         1.291143
 H        -0.583400        -0.884801         0.456559
 H        -0.263852         0.880333         0.541448
 H        -0.735579        -0.008827        -0.940811
 H         2.433307         0.632234        -1.976718
 H         1.882245         2.034241        -0.908779
 H         4.704784         1.986750         0.605284
 H         2.179702         0.433770         2.160807
