19
Iteration:  4475charge 0 multiplicity 1
 C         4.199272        -1.713088         0.802099
 C         3.180794        -0.911120         0.258029
 O         2.026211        -1.284324        -0.475935
 C         1.453763        -0.050153        -0.069929
 C        -0.075939        -0.089508        -0.076385
 C         2.199775         1.122303        -0.986032
 C         3.371377         0.667945        -0.128242
 O         4.642614         1.265972        -0.015400
 C         2.444329         0.175019         1.107768
 H         3.662472        -2.568834         1.363682
 H         4.855092        -2.028297        -0.052684
 H         4.757099        -1.192903         1.567674
 H        -0.513848        -0.579376         0.879687
 H        -0.365421         0.961266        -0.069591
 H        -0.508728        -0.516122        -1.005083
 H         2.117218         1.073932        -2.071714
 H         1.683005         2.039754        -0.620453
 H         4.721995         1.964599        -0.724770
 H         2.345895         0.282879         2.163711
