19
Iteration:  2013charge 0 multiplicity 1
 C         4.338264        -1.842878         0.652922
 C         3.161813        -0.853787         0.281589
 O         2.042274        -1.280691        -0.425380
 C         1.401519        -0.017573        -0.178549
 C        -0.070465         0.074983        -0.014393
 C         2.233311         0.940529        -0.997737
 C         3.339922         0.702994        -0.003892
 O         4.577086         1.254987        -0.025092
 C         2.379637         0.206209         1.038938
 H         3.928304        -2.529347         1.561891
 H         4.857977        -2.483334        -0.114889
 H         5.164270        -1.234785         1.152518
 H        -0.359922        -0.551916         0.847600
 H        -0.543316         1.090171         0.222314
 H        -0.698136        -0.225568        -0.965616
 H         2.264238         0.779585        -2.102348
 H         2.078756         2.019242        -0.975703
 H         4.585732         2.007945         0.557179
 H         2.135405         0.573434         2.129273
