19
Iteration:  3401
 C         4.248964        -1.843939         0.645644
 C         3.167889        -0.726182         0.307034
 O         2.039436        -1.299594        -0.362066
 C         1.388455         0.044452        -0.037377
 C        -0.168511        -0.066615        -0.138655
 C         2.177940         0.953507        -1.023751
 C         3.354835         0.700452        -0.104116
 O         4.732298         1.202979         0.012646
 C         2.436853         0.268201         1.102601
 H         3.957851        -2.538646         1.411685
 H         4.644879        -2.371920        -0.222750
 H         5.018499        -1.153923         1.103166
 H        -0.842383        -0.392729         0.680684
 H        -0.499270         0.882610        -0.489528
 H        -0.313437        -0.600678        -1.143536
 H         2.091706         0.665125        -2.092566
 H         1.738574         2.002860        -0.929981
 H         4.821968         2.044203         0.552784
 H         2.492203         0.611349         2.165897
