19
Iteration:  2035charge 0 multiplicity 1
 C         4.146567        -1.746801         0.753829
 C         3.170564        -0.847948         0.254291
 O         2.006807        -1.340563        -0.522173
 C         1.437834         0.000495        -0.028570
 C        -0.083649        -0.050965         0.009375
 C         2.185741         1.059084        -1.046956
 C         3.436907         0.626281        -0.153104
 O         4.626594         1.265438         0.056178
 C         2.528650         0.211343         1.016991
 H         3.848051        -2.563547         1.535675
 H         4.705873        -2.176686        -0.123346
 H         4.982684        -1.278321         1.376797
 H        -0.496725        -0.665042         0.793766
 H        -0.537995         0.976524         0.317228
 H        -0.677784        -0.177014        -0.992147
 H         2.091149         0.842441        -2.139856
 H         1.878419         2.111648        -0.912515
 H         4.522228         2.258138         0.213316
 H         2.414406         0.413077         2.168213
