19
Iteration:   794charge 0 multiplicity 1
 C         4.241324        -1.812893         0.514752
 C         3.220066        -0.807087         0.268717
 O         2.065697        -1.262372        -0.448029
 C         1.391844         0.084084        -0.096053
 C        -0.107655        -0.131948        -0.046411
 C         2.270374         1.080305        -0.928997
 C         3.355761         0.682399        -0.036945
 O         4.587735         1.182293         0.082233
 C         2.366423         0.257957         1.079454
 H         4.028935        -2.325692         1.377774
 H         4.480440        -2.501168        -0.292864
 H         5.204228        -1.303874         0.699628
 H        -0.350072        -0.517770         0.932923
 H        -0.695225         0.726938        -0.328905
 H        -0.270760        -1.068185        -0.699029
 H         2.369669         1.000060        -2.014626
 H         2.022743         2.119771        -0.786541
 H         4.400161         2.149194         0.218743
 H         2.228843         0.333134         2.151282
