19
Iteration:  4632
 C         4.154829        -1.834139         0.793463
 C         3.121590        -0.864696         0.324762
 O         2.146533        -1.338115        -0.463353
 C         1.450559         0.040359        -0.047264
 C        -0.060110        -0.053964        -0.058006
 C         2.205072         1.141600        -0.894534
 C         3.366674         0.692171        -0.045943
 O         4.539970         1.334193        -0.198311
 C         2.443431         0.182772         1.065259
 H         3.830123        -2.744073         1.214980
 H         4.805386        -2.091142        -0.137141
 H         4.760417        -1.295948         1.543235
 H        -0.370867        -0.920072         0.454621
 H        -0.714052         0.798697         0.250595
 H        -0.494818        -0.149076        -1.151696
 H         2.333640         0.994348        -1.985104
 H         1.833210         2.143438        -0.713565
 H         5.396506         0.905430        -0.241148
 H         2.182858         0.342408         2.153565
