19
Iteration:  1721
 C         4.084565        -1.802543         0.761798
 C         3.155373        -0.791870         0.260167
 O         2.120663        -1.314286        -0.483337
 C         1.400570         0.003029        -0.160845
 C        -0.051840        -0.038872         0.019323
 C         2.287867         0.986997        -0.983464
 C         3.354080         0.662460        -0.025118
 O         4.634739         1.320675        -0.090752
 C         2.412248         0.214989         1.076827
 H         3.641361        -2.736475         1.097028
 H         4.356982        -2.095256        -0.289935
 H         4.865764        -1.436776         1.437428
 H        -0.187449        -0.811615         0.741405
 H        -0.352934         0.951221         0.419577
 H        -0.700969        -0.463911        -0.849099
 H         2.370055         0.667290        -2.021459
 H         1.928095         2.029163        -0.854356
 H         4.595028         2.130178         0.424630
 H         2.419717         0.419625         2.145758
