19
Iteration:  3765charge 0 multiplicity 1
 C         4.238480        -1.733388         0.687354
 C         3.195786        -0.818385         0.230587
 O         1.977907        -1.332417        -0.327188
 C         1.407748         0.067541        -0.039227
 C        -0.117841        -0.040107        -0.028485
 C         2.257956         0.939399        -1.072065
 C         3.453396         0.570803        -0.123191
 O         4.624959         1.350146         0.016899
 C         2.413217         0.212052         0.977920
 H         4.058618        -2.358977         1.559949
 H         4.554839        -2.324460        -0.180007
 H         5.086533        -1.087667         1.072288
 H        -0.797805        -0.487960         0.693081
 H        -0.512142         1.029310        -0.216418
 H        -0.378447        -0.694007        -0.947512
 H         2.167873         0.611811        -2.100389
 H         2.014013         2.016594        -0.989538
 H         4.358578         1.883922         0.803680
 H         2.351595         0.317129         2.131481
