19
Iteration:   237
 C         4.364482        -1.787470         0.524371
 C         3.161494        -0.905210         0.241391
 O         1.935160        -1.325547        -0.372263
 C         1.326260        -0.009229        -0.068845
 C        -0.130103         0.019198        -0.123874
 C         2.228798         1.032926        -0.987722
 C         3.357789         0.642223        -0.009822
 O         4.599852         1.393533         0.109828
 C         2.468919         0.201864         1.070261
 H         4.086836        -2.546984         1.285636
 H         4.916980        -2.283424        -0.394700
 H         5.200820        -1.376368         1.060203
 H        -0.734028        -0.726898         0.512471
 H        -0.304541         1.196632        -0.012086
 H        -0.346863        -0.197257        -1.184548
 H         2.372233         0.643427        -2.077944
 H         1.792327         2.045275        -0.972837
 H         5.286460         0.892494         0.632111
 H         2.557749         0.504095         2.065364
