19
Iteration:  2775charge 0 multiplicity 1
 C         4.196679        -1.753745         0.712558
 C         3.160787        -0.769661         0.225023
 O         1.985363        -1.358872        -0.444649
 C         1.425553        -0.070565        -0.135008
 C        -0.066180        -0.015578        -0.020187
 C         2.201900         1.047000        -0.976851
 C         3.381101         0.678264        -0.170166
 O         4.623689         1.232303         0.083990
 C         2.542180         0.216605         1.040328
 H         3.932076        -2.203824         1.667644
 H         4.416223        -2.554085        -0.002476
 H         5.132314        -1.224148         1.016165
 H        -0.589582        -0.836091         0.422582
 H        -0.388831         1.028490         0.317190
 H        -0.438371        -0.177808        -1.004219
 H         2.107496         1.012630        -2.087080
 H         1.637006         1.965840        -0.664150
 H         4.757805         2.130970         0.375283
 H         2.319406         0.452603         2.075163
