19
Iteration:  3651
 C         4.179633        -1.785793         0.761022
 C         3.129762        -0.848910         0.384932
 O         2.067979        -1.381519        -0.412237
 C         1.405673        -0.003135        -0.181736
 C        -0.065549        -0.023781        -0.043811
 C         2.165502         1.021843        -1.063778
 C         3.430145         0.675610        -0.103584
 O         4.663981         1.330071        -0.063824
 C         2.465209         0.242654         1.034411
 H         3.691495        -2.601335         1.346429
 H         4.742033        -2.221250        -0.087895
 H         4.880005        -1.274187         1.461919
 H        -0.341364        -0.979524         0.457647
 H        -0.329823         0.751495         0.621476
 H        -0.576965         0.066759        -0.974840
 H         1.862254         0.706877        -2.052375
 H         1.667292         1.974153        -0.838707
 H         4.662023         2.030567         0.653156
 H         2.246318         0.590088         2.029371
