19
Iteration:  4298charge 0 multiplicity 1
 C         4.268965        -1.745450         0.775358
 C         3.165156        -0.845844         0.218394
 O         1.928258        -1.298868        -0.407206
 C         1.449412         0.054496        -0.161622
 C        -0.095296        -0.110324        -0.071443
 C         2.197539         1.071733        -1.011353
 C         3.385428         0.645880        -0.086943
 O         4.624658         1.232303        -0.019076
 C         2.519085         0.260643         1.065169
 H         3.704764        -2.593112         1.181561
 H         4.969201        -2.114747         0.046088
 H         4.824396        -1.088035         1.553943
 H        -0.213095        -0.645431         0.872080
 H        -0.759748         0.789841        -0.232172
 H        -0.361568        -0.874246        -0.781800
 H         2.122927         0.826721        -2.060481
 H         1.860137         2.084894        -0.776682
 H         4.506812         2.001403         0.611551
 H         2.547625         0.268972         2.125651
