19
Iteration:  4890charge 0 multiplicity 1
 C         4.337461        -1.751719         0.564784
 C         3.214188        -0.796726         0.268252
 O         1.971569        -1.373508        -0.489103
 C         1.370496        -0.061395        -0.083713
 C        -0.098479         0.134619         0.063765
 C         2.254677         0.889345        -1.052140
 C         3.330740         0.666580        -0.031795
 O         4.563619         1.340179         0.143629
 C         2.418325         0.188964         1.033624
 H         4.053929        -2.751306         1.010022
 H         5.265283        -1.757158        -0.028265
 H         4.674311        -1.133889         1.353812
 H        -0.604442        -0.040678         0.964887
 H        -0.316925         1.155633        -0.243071
 H        -0.580839        -0.393958        -0.851769
 H         2.479578         0.754972        -2.118016
 H         1.860449         1.852738        -0.840338
 H         5.199269         0.927863        -0.465272
 H         2.201499         0.246919         2.055401
