19
Iteration:  1788
 C         4.331653        -1.704216         0.569163
 C         3.203112        -0.778799         0.266644
 O         1.947246        -1.330751        -0.309031
 C         1.376936        -0.028599        -0.044133
 C        -0.097763        -0.038087        -0.132091
 C         2.304373         1.043633        -0.990368
 C         3.367766         0.674875        -0.056387
 O         4.616135         1.135178         0.044205
 C         2.353202         0.241568         1.063309
 H         4.285322        -2.425173         1.340583
 H         4.510640        -2.406337        -0.292532
 H         5.296015        -1.087144         0.748127
 H        -0.827246        -0.549572         0.502939
 H        -0.376747         1.060545        -0.100969
 H        -0.480475        -0.351494        -1.144337
 H         2.358228         0.750950        -2.009567
 H         1.840593         2.073685        -0.795464
 H         4.681034         2.121148         0.120521
 H         2.355774         0.573201         2.220342
