19
Iteration:  4007charge 0 multiplicity 1
 C         4.309588        -1.745754         0.842241
 C         3.190229        -0.810827         0.294056
 O         2.022930        -1.279788        -0.470306
 C         1.413568         0.101909        -0.086401
 C        -0.116130        -0.131558        -0.112065
 C         2.177040         1.074250        -0.966747
 C         3.362211         0.660464        -0.097584
 O         4.673575         1.199686        -0.129071
 C         2.364436         0.213374         1.099834
 H         3.796627        -2.388177         1.582631
 H         4.571633        -2.319938        -0.119591
 H         5.206404        -1.222730         1.323981
 H        -0.348094        -1.003062         0.560352
 H        -0.752212         0.688814         0.387591
 H        -0.337996        -0.329966        -1.126830
 H         2.112946         0.625199        -1.989695
 H         1.913216         2.178963        -0.805579
 H         4.686298         2.024603         0.433959
 H         2.329654         0.251321         2.111881
