19
Iteration:  4985charge 0 multiplicity 1
 C         4.245348        -1.840765         0.769495
 C         3.230007        -0.800599         0.303643
 O         2.067134        -1.285499        -0.549605
 C         1.404165         0.011674        -0.161866
 C        -0.032333         0.043755        -0.027878
 C         2.214209         1.037312        -0.854150
 C         3.381172         0.649185        -0.069383
 O         4.534997         1.396671        -0.023151
 C         2.357426         0.108265         1.017909
 H         4.046585        -2.281749         1.820067
 H         4.041720        -2.726002         0.164752
 H         5.340412        -1.778301         0.649361
 H        -0.430731        -0.906499         0.460930
 H        -0.579242         0.851959         0.466506
 H        -0.437434         0.015710        -0.991420
 H         2.053189         0.982063        -1.955803
 H         2.023382         2.086389        -0.520700
 H         5.241612         0.810183        -0.262331
 H         2.196712         0.238651         2.051898
