19
Iteration:  1163
 C         4.195717        -1.910203         0.671742
 C         3.160548        -0.807607         0.345007
 O         2.088654        -1.244690        -0.559823
 C         1.390046         0.045650        -0.165106
 C        -0.150607        -0.101564         0.042903
 C         2.330112         1.079638        -0.997507
 C         3.377471         0.609107        -0.060530
 O         4.611744         1.328513         0.035816
 C         2.397555         0.220253         1.074880
 H         3.944156        -2.650544         1.379698
 H         4.383395        -2.394615        -0.346625
 H         5.134113        -1.443814         1.084161
 H        -0.273601        -0.853034         0.890213
 H        -0.463154         0.911725         0.264444
 H        -0.674810        -0.679972        -0.788076
 H         2.443635         0.865170        -2.121426
 H         2.098588         2.097405        -0.725764
 H         4.413797         2.267388         0.064467
 H         2.111730         0.483287         2.199362
