19
Iteration:  3972charge 0 multiplicity 1
 C         4.205502        -1.817919         0.744122
 C         3.178887        -0.798344         0.341121
 O         2.053096        -1.341809        -0.426895
 C         1.416759         0.030322        -0.116858
 C        -0.076665        -0.108487        -0.073206
 C         2.224092         1.070050        -0.968674
 C         3.365305         0.713856        -0.072979
 O         4.649560         1.280926        -0.074882
 C         2.400690         0.217943         1.100406
 H         3.852598        -2.437028         1.577272
 H         4.215678        -2.555457        -0.101690
 H         5.269438        -1.367961         0.947942
 H        -0.418079        -0.690656         0.772309
 H        -0.513344         0.907215        -0.294486
 H        -0.424213        -0.707366        -0.944705
 H         2.289271         0.853174        -2.084049
 H         1.781497         2.129661        -0.899264
 H         4.602121         2.266004        -0.043597
 H         2.263474         0.451028         2.110926
