19
Iteration:  1047
 C         4.347818        -1.853328         0.645362
 C         3.245677        -0.732026         0.226848
 O         2.012406        -1.284933        -0.467040
 C         1.379198         0.038086        -0.096445
 C        -0.124912        -0.025845         0.005072
 C         2.116149         1.023914        -1.055307
 C         3.369945         0.681488        -0.116769
 O         4.658200         1.202245         0.188720
 C         2.405183         0.218840         0.981304
 H         3.810330        -2.625140         1.201418
 H         4.900424        -2.312427        -0.232952
 H         5.055709        -1.434936         1.346183
 H        -0.532523        -0.818483         0.659633
 H        -0.610616         0.916625         0.223299
 H        -0.509843        -0.498449        -0.887618
 H         2.158362         0.814602        -2.114991
 H         1.856638         2.100058        -0.847164
 H         4.591100         2.148113         0.347958
 H         2.415790         0.383967         2.133726
