19
Iteration:  4378
 C         4.299340        -1.749588         0.631155
 C         3.169206        -0.876297         0.331842
 O         2.009901        -1.327011        -0.364119
 C         1.403475         0.003278        -0.145973
 C        -0.112159         0.002608        -0.144554
 C         2.210519         0.862809        -0.973157
 C         3.413781         0.618519        -0.091599
 O         4.610609         1.329159         0.015409
 C         2.442522         0.337280         1.099877
 H         4.258095        -2.391714         1.595793
 H         4.271781        -2.483962        -0.300177
 H         5.232631        -1.190146         0.753934
 H        -0.478114        -0.906774         0.477621
 H        -0.656949         0.856617         0.292576
 H        -0.547657        -0.031714        -1.195878
 H         2.137313         0.702978        -2.049519
 H         1.981091         1.925160        -0.786111
 H         4.337211         2.108413         0.586252
 H         2.350988         0.555877         2.171877
