19
Iteration:  3016
 C         4.336939        -1.729784         0.593777
 C         3.157166        -0.802711         0.386077
 O         2.085228        -1.330155        -0.424593
 C         1.415193         0.019051        -0.056411
 C        -0.099622         0.060959        -0.135360
 C         2.215478         0.954966        -1.051412
 C         3.292100         0.660962        -0.062614
 O         4.574630         1.098439         0.030212
 C         2.422486         0.290409         1.137705
 H         4.342604        -2.562224         1.347553
 H         4.618362        -2.129229        -0.433767
 H         5.071639        -1.015671         0.801166
 H        -0.548909        -0.347419         0.737481
 H        -0.332111         1.170850         0.067408
 H        -0.527382        -0.470284        -0.993113
 H         2.272960         0.596147        -2.023626
 H         1.699482         1.884370        -0.879840
 H         4.626814         1.978227         0.362429
 H         2.074400         0.710664         2.044330
