19
Iteration:  1713charge 0 multiplicity 1
 C         4.077208        -1.865721         0.791629
 C         3.155457        -0.840031         0.331203
 O         2.063942        -1.316322        -0.499942
 C         1.422857         0.026376        -0.120218
 C        -0.011085        -0.063280         0.015916
 C         2.183090         1.022309        -1.063410
 C         3.390291         0.664334        -0.037246
 O         4.672019         1.368769        -0.058114
 C         2.429282         0.214490         1.013153
 H         3.597423        -2.798877         0.979758
 H         4.728150        -2.155407        -0.094997
 H         4.980498        -1.497667         1.328561
 H        -0.208565        -0.842616         0.754239
 H        -0.474349         0.810667         0.501078
 H        -0.627915        -0.235336        -0.796168
 H         2.415767         0.728985        -2.033032
 H         1.935174         2.094991        -0.884194
 H         4.523162         2.264104         0.290626
 H         2.324385         0.455690         2.161057
