19
Iteration:  3153charge 0 multiplicity 1
 C         4.398166        -1.792606         0.683802
 C         3.189838        -0.815008         0.412906
 O         2.001415        -1.325254        -0.416422
 C         1.343508         0.005043        -0.121048
 C        -0.124465         0.082278        -0.055201
 C         2.200103         0.979409        -1.063238
 C         3.353662         0.602295        -0.168502
 O         4.586504         1.214719         0.033345
 C         2.439551         0.257736         1.049270
 H         4.002712        -2.441065         1.489352
 H         4.719762        -2.408660        -0.155459
 H         5.158095        -1.096188         1.083999
 H        -0.581508        -0.754569         0.545835
 H        -0.386246         1.119160         0.247733
 H        -0.400523        -0.437871        -1.064023
 H         2.231607         0.782836        -2.190547
 H         1.988817         2.035338        -0.891780
 H         4.500710         1.975862         0.678719
 H         2.483956         0.722211         1.985838
