19
Iteration:  2711charge 0 multiplicity 1
 C         4.170312        -1.829047         0.716223
 C         3.149507        -0.753045         0.271830
 O         2.013708        -1.311679        -0.426594
 C         1.465711         0.028804        -0.210524
 C        -0.094324        -0.118781        -0.017277
 C         2.222220         1.038057        -0.920072
 C         3.380555         0.708701        -0.074122
 O         4.674785         1.216637        -0.072038
 C         2.477220         0.282900         1.099378
 H         3.459123        -2.627154         0.895935
 H         4.841362        -2.128103        -0.111066
 H         4.810640        -1.461406         1.545051
 H        -0.278992        -0.829774         0.745719
 H        -0.640397         0.818288         0.243273
 H        -0.459215        -0.426211        -1.061819
 H         2.162786         0.873958        -2.051548
 H         1.823322         2.095436        -0.624922
 H         4.621975         2.115978         0.360656
 H         2.127818         0.362046         2.103947
