19
Iteration:  2461charge 0 multiplicity 1
 C         4.305458        -1.723110         0.576310
 C         3.128496        -0.792596         0.412050
 O         2.121183        -1.333342        -0.459324
 C         1.345029        -0.034901        -0.149125
 C        -0.100654         0.082427         0.004465
 C         2.260431         0.942601        -1.038816
 C         3.305243         0.717936         0.068418
 O         4.630824         1.119975        -0.102627
 C         2.316335         0.274536         1.107181
 H         4.012560        -2.689573         0.959104
 H         4.931799        -1.790213        -0.333326
 H         4.925983        -1.245701         1.434255
 H        -0.400041        -0.664301         0.679855
 H        -0.489011         1.045045         0.350630
 H        -0.556321        -0.216053        -1.022197
 H         2.500893         0.609935        -2.084557
 H         1.986776         1.983591        -1.074667
 H         4.858205         1.849743         0.549005
 H         2.202065         0.486326         2.221329
