19
Iteration:  2875
 C         4.292128        -1.773704         0.690607
 C         3.179063        -0.836124         0.337682
 O         2.063163        -1.259783        -0.478349
 C         1.384947         0.034543        -0.138380
 C        -0.187687        -0.038214        -0.044243
 C         2.147607         1.055955        -1.002053
 C         3.371715         0.566505        -0.113635
 O         4.639650         1.195406         0.075729
 C         2.551071         0.258649         1.044601
 H         3.769025        -2.644402         1.114631
 H         5.031956        -2.100577        -0.041970
 H         4.871479        -1.304298         1.423078
 H        -0.526561        -0.622507         0.766542
 H        -0.618470         0.926441         0.164894
 H        -0.644170        -0.547063        -0.944535
 H         2.085486         0.894372        -2.062700
 H         1.838658         2.050356        -0.639847
 H         4.494503         2.095040        -0.216474
 H         2.324785         0.631133         2.040245
