19
Iteration:  2370
 C         4.213798        -1.878069         0.687812
 C         3.169803        -0.846437         0.364177
 O         2.056095        -1.307602        -0.452786
 C         1.454090        -0.001797        -0.197360
 C        -0.058506        -0.032953         0.020542
 C         2.263156         1.091001        -1.019140
 C         3.338421         0.653348         0.055338
 O         4.642799         1.306846        -0.127207
 C         2.321812         0.245132         1.092733
 H         3.847442        -2.537413         1.552449
 H         4.217180        -2.539068        -0.221445
 H         5.248981        -1.622955         0.893155
 H        -0.402017        -0.750178         0.913951
 H        -0.379467         1.061318         0.224186
 H        -0.509104        -0.338375        -0.892495
 H         2.562991         0.838831        -2.022293
 H         2.016028         2.134217        -0.892220
 H         4.358716         2.225546         0.000641
 H         2.160351         0.342182         2.128420
