19
Iteration:   493
 C         4.174829        -1.797586         0.776345
 C         3.172244        -0.806995         0.221099
 O         2.089491        -1.347608        -0.584147
 C         1.412255        -0.010499        -0.155870
 C        -0.022445        -0.048901        -0.010200
 C         2.044837         1.136270        -0.862484
 C         3.339666         0.678646        -0.120784
 O         4.702621         1.232048         0.030843
 C         2.520426         0.175906         1.065795
 H         3.525823        -2.485819         1.185021
 H         4.656770        -2.235834        -0.053062
 H         4.826343        -1.337717         1.494363
 H        -0.198279        -1.022464         0.463264
 H        -0.415895         0.846420         0.388571
 H        -0.539283        -0.131721        -1.034921
 H         1.954741         1.020967        -1.923655
 H         1.499907         2.074441        -0.498575
 H         4.706258         2.201989         0.245844
 H         2.349064         0.554867         2.068696
