19
Iteration:  4505charge 0 multiplicity 1
 C         4.240020        -1.904570         0.710075
 C         3.257037        -0.889166         0.187153
 O         2.035822        -1.213516        -0.381859
 C         1.432791         0.027654        -0.064719
 C        -0.132762        -0.150143        -0.140607
 C         2.177428         1.080911        -0.980788
 C         3.390510         0.634096        -0.045913
 O         4.592645         1.333102         0.029757
 C         2.464445         0.342958         1.083308
 H         3.653996        -2.582942         1.322946
 H         4.821202        -2.437529         0.055881
 H         4.917682        -1.279241         1.324422
 H        -0.597135        -0.518105         0.807808
 H        -0.640660         0.819319        -0.163606
 H        -0.552642        -0.747717        -0.877770
 H         2.059184         0.831547        -2.046942
 H         1.818908         2.080059        -0.657587
 H         4.980702         1.390795        -0.841429
 H         2.265670         0.402058         2.188921
