19
Iteration:  3582charge 0 multiplicity 1
 C         4.332740        -1.762610         0.674037
 C         3.271097        -0.814514         0.267651
 O         1.939483        -1.412655        -0.384900
 C         1.404917        -0.010748        -0.171269
 C        -0.154466         0.003490        -0.105634
 C         2.202086         0.970233        -0.962965
 C         3.399297         0.679982        -0.040832
 O         4.612467         1.218406         0.069665
 C         2.420146         0.332665         1.031401
 H         3.920826        -2.420048         1.438673
 H         4.655366        -2.372260        -0.186122
 H         5.284165        -1.162479         0.927887
 H        -0.401853        -0.358681         0.887931
 H        -0.635701         1.025022        -0.153072
 H        -0.534974        -0.617736        -0.819082
 H         2.463328         0.727027        -2.033870
 H         1.860277         2.013152        -0.773297
 H         4.603581         2.190224        -0.102520
 H         2.174216         0.856098         2.009633
