19
Iteration:  4803
 C         4.174908        -1.883380         0.643149
 C         3.225386        -0.745680         0.336753
 O         1.974131        -1.253199        -0.428794
 C         1.426781         0.054675        -0.016263
 C        -0.076899        -0.229400        -0.107070
 C         2.197129         1.022684        -0.914963
 C         3.396933         0.776567        -0.067297
 O         4.650144         1.307008         0.003943
 C         2.431039         0.303972         1.050392
 H         3.628077        -2.435259         1.474898
 H         4.242630        -2.522829        -0.307637
 H         5.102412        -1.567562         1.075273
 H        -0.145010        -1.245785         0.109231
 H        -0.610628         0.357351         0.625250
 H        -0.427235         0.032311        -1.147690
 H         2.325152         0.681249        -1.959545
 H         1.905676         2.066475        -0.883367
 H         5.033740         0.996014        -0.871045
 H         2.384390         0.761275         2.052512
