19
Iteration:  1452charge 0 multiplicity 1
 C         4.317899        -1.709242         0.569228
 C         3.066137        -0.805325         0.423957
 O         2.068633        -1.285908        -0.468298
 C         1.391228        -0.018220        -0.127387
 C        -0.091540        -0.022718        -0.081701
 C         2.213505         1.007977        -0.963319
 C         3.379633         0.683364         0.048318
 O         4.742853         1.123874        -0.029873
 C         2.228957         0.233022         1.089454
 H         4.120128        -2.654672         1.033190
 H         4.679639        -1.740144        -0.408673
 H         5.153322        -1.150895         0.999120
 H        -0.231578        -0.697913         0.780689
 H        -0.518161         0.921017         0.420793
 H        -0.568221        -0.235932        -1.003720
 H         2.385843         0.724671        -1.989480
 H         1.929180         2.112477        -0.939401
 H         4.702095         2.102886        -0.109881
 H         2.026184         0.340655         2.145734
