19
Iteration:   559
 C         4.315122        -1.782849         0.414183
 C         3.139990        -0.794839         0.364802
 O         2.034255        -1.283448        -0.351121
 C         1.442385        -0.008818        -0.077387
 C        -0.047738         0.017816        -0.109697
 C         2.201060         0.924896        -1.012084
 C         3.329202         0.714732        -0.018986
 O         4.638687         1.237746         0.086470
 C         2.342608         0.184897         1.136704
 H         4.104915        -2.650566         1.059047
 H         4.698573        -2.066931        -0.550953
 H         5.153019        -1.244675         0.836201
 H        -0.560411        -0.715638         0.580851
 H        -0.256284         1.090540         0.076951
 H        -0.562460        -0.203536        -1.084915
 H         2.553651         0.668654        -2.010447
 H         1.747358         1.922989        -1.214968
 H         4.402383         2.074306         0.515809
 H         2.013333         0.347211         2.124341
