19
Iteration:   677
 C         4.108525        -1.848028         0.701977
 C         3.214030        -0.867764         0.178603
 O         2.039008        -1.263824        -0.481437
 C         1.420856         0.035951        -0.076792
 C        -0.067617        -0.196397        -0.012534
 C         2.198707         1.127846        -0.952278
 C         3.353176         0.696207        -0.063586
 O         4.604685         1.259220         0.036105
 C         2.538752         0.249112         1.047667
 H         3.520414        -2.709825         1.119380
 H         4.961276        -2.244116         0.025340
 H         4.699657        -1.312385         1.497830
 H        -0.279635        -1.245449         0.223480
 H        -0.468714         0.573459         0.590660
 H        -0.533764         0.106057        -0.955709
 H         2.290284         1.192324        -2.015935
 H         1.875098         2.168984        -0.695468
 H         4.633459         2.203381        -0.144440
 H         2.538321         0.539523         2.059050
