19
Iteration:  4722charge 0 multiplicity 1
 C         4.379708        -1.762669         0.634188
 C         3.207976        -0.861032         0.381866
 O         2.038390        -1.412673        -0.489971
 C         1.399300         0.003893        -0.113184
 C        -0.171730         0.148720         0.032344
 C         2.226463         0.965102        -1.149053
 C         3.354911         0.588804        -0.069330
 O         4.524056         1.349340         0.175223
 C         2.390948         0.200657         1.062036
 H         4.222815        -2.625102         1.342582
 H         4.609855        -2.199051        -0.333191
 H         5.235617        -1.013000         0.870704
 H        -0.494046        -0.286435         1.073374
 H        -0.322343         1.254768         0.032526
 H        -0.669280        -0.344861        -0.783878
 H         2.516547         0.566693        -2.099078
 H         1.792778         1.999873        -1.306757
 H         4.987046         1.254042        -0.693369
 H         2.395101         0.565946         2.055049
