19
Iteration:  2990charge 0 multiplicity 1
 C         4.297356        -1.763230         0.525856
 C         3.166942        -0.803805         0.410024
 O         1.988365        -1.330407        -0.312660
 C         1.409725        -0.055337        -0.134199
 C        -0.135104         0.081846        -0.085645
 C         2.366300         0.920480        -1.043258
 C         3.360517         0.660485         0.016969
 O         4.633856         1.270334         0.022869
 C         2.318999         0.225085         0.997342
 H         4.226731        -2.533129         1.302338
 H         4.384614        -2.252059        -0.445528
 H         5.219144        -1.080014         0.701206
 H        -0.528424        -0.634129         0.688507
 H        -0.383535         1.068450         0.348506
 H        -0.612088        -0.300208        -0.926175
 H         2.474057         0.564012        -2.154979
 H         1.827326         1.882972        -0.881421
 H         4.607630         2.209180         0.133022
 H         2.143657         0.409937         2.089964
