19
Iteration:  2695
 C         4.224992        -1.841952         0.684083
 C         3.233141        -0.888483         0.302239
 O         2.033052        -1.251058        -0.374773
 C         1.339394        -0.008487        -0.020615
 C        -0.116231        -0.078380        -0.093765
 C         2.130479         1.102484        -1.045202
 C         3.417612         0.686038        -0.129487
 O         4.662137         1.206583         0.014284
 C         2.444150         0.261754         1.034876
 H         3.801739        -2.857694         0.872256
 H         5.004658        -1.967256        -0.079754
 H         4.846071        -1.556495         1.548623
 H        -0.461063        -0.707357         0.808315
 H        -0.509080         0.957237         0.061669
 H        -0.357396        -0.299159        -1.146672
 H         2.213122         0.998205        -2.115242
 H         1.756307         2.096841        -0.875302
 H         4.508121         2.105614         0.320856
 H         2.723428         0.705357         2.046205
