19
Iteration:  2156
 C         4.342138        -1.738641         0.618035
 C         3.223727        -0.856633         0.327250
 O         2.013799        -1.294630        -0.348193
 C         1.364315        -0.047079        -0.064940
 C        -0.115913         0.072132        -0.054800
 C         2.310997         1.003141        -1.092042
 C         3.328435         0.586339        -0.116741
 O         4.581739         1.194878         0.058162
 C         2.366765         0.253046         1.063214
 H         4.210689        -2.562207         1.223655
 H         4.630424        -2.196184        -0.308373
 H         5.205240        -1.123803         0.801961
 H        -0.556905        -0.412464         0.737737
 H        -0.402844         1.136678         0.138216
 H        -0.660375        -0.186136        -1.036164
 H         2.344450         0.792923        -2.121426
 H         1.835774         1.935850        -0.933716
 H         4.379478         2.093573         0.297888
 H         2.370982         0.405848         2.144238
