19
Iteration:  3386
 C         4.250970        -1.691807         0.606589
 C         3.179550        -0.830617         0.406657
 O         2.000698        -1.326270        -0.318019
 C         1.369863        -0.001040        -0.048094
 C        -0.099000        -0.053743        -0.214261
 C         2.197080         1.061475        -1.014886
 C         3.395707         0.661037        -0.054128
 O         4.694228         1.162185        -0.030478
 C         2.423195         0.285808         1.109037
 H         3.912843        -2.530617         1.233386
 H         4.232519        -2.201929        -0.362377
 H         5.230754        -1.339891         0.987152
 H        -0.443448        -0.520800         0.748376
 H        -0.557512         1.040031        -0.469168
 H        -0.367826        -0.806925        -0.919185
 H         2.326191         0.817867        -2.077095
 H         1.918644         2.114334        -1.062187
 H         4.504223         2.076159         0.327916
 H         2.251446         0.364648         2.143300
