19
Iteration:  4499charge 0 multiplicity 1
 C         4.198245        -1.839836         0.747895
 C         3.256179        -0.877621         0.184755
 O         2.044639        -1.299419        -0.427507
 C         1.382368         0.012031        -0.100311
 C        -0.148589        -0.100950        -0.103478
 C         2.152730         1.065519        -0.876622
 C         3.407335         0.642069        -0.097623
 O         4.642176         1.326466         0.028796
 C         2.462302         0.340704         1.075928
 H         3.619828        -2.566605         1.396377
 H         4.859514        -2.336059        -0.128686
 H         4.869078        -1.339105         1.446772
 H        -0.461573        -0.625131         0.822264
 H        -0.683596         0.846359        -0.320120
 H        -0.343347        -0.808874        -1.042632
 H         2.004763         0.843106        -1.947253
 H         1.938473         2.106184        -0.622203
 H         4.956806         1.604461        -0.852050
 H         2.457591         0.509120         2.122448
