19
Iteration:  2820
 C         4.366631        -1.762129         0.531802
 C         3.175528        -0.900888         0.444519
 O         2.018764        -1.239362        -0.418907
 C         1.375620         0.007366        -0.070857
 C        -0.149774         0.084446        -0.114192
 C         2.288055         0.843625        -1.027915
 C         3.310732         0.601113         0.016759
 O         4.603751         1.289427        -0.015552
 C         2.388235         0.287861         1.129068
 H         4.406418        -2.727412         1.087725
 H         4.302014        -2.108005        -0.528156
 H         5.285086        -1.359492         0.902579
 H        -0.563479        -0.693897         0.441093
 H        -0.421649         1.124296         0.074535
 H        -0.545272        -0.300228        -1.094405
 H         2.432435         0.452953        -2.067062
 H         2.096754         1.945834        -1.253427
 H         4.410360         1.886506         0.697370
 H         2.305785         0.607029         2.245047
