19
Iteration:  2688charge 0 multiplicity 1
 C         4.320783        -1.870714         0.684165
 C         3.184150        -0.860445         0.254421
 O         2.025139        -1.240709        -0.360271
 C         1.390676         0.036080        -0.034272
 C        -0.164861        -0.059490        -0.067996
 C         2.130459         1.075056        -1.029976
 C         3.392374         0.596609        -0.119891
 O         4.650070         1.216784         0.053112
 C         2.486204         0.252668         1.044601
 H         3.850284        -2.822737         0.741563
 H         5.040758        -1.911756        -0.140862
 H         4.909532        -1.451083         1.562736
 H        -0.803698        -0.617686         0.623827
 H        -0.455516         1.057527        -0.089708
 H        -0.208393        -0.233599        -1.122452
 H         2.092313         0.710224        -2.132957
 H         1.701320         2.166679        -0.974364
 H         4.392777         2.099896         0.275449
 H         2.534282         0.904836         1.864019
