19
Iteration:  2279charge 0 multiplicity 1
 C         4.312690        -1.771401         0.718660
 C         3.139771        -0.838500         0.426307
 O         2.044288        -1.219433        -0.495641
 C         1.349611        -0.029086        -0.077672
 C        -0.127677         0.042584        -0.040811
 C         2.281177         0.989583        -1.009276
 C         3.350821         0.650701         0.013510
 O         4.628507         1.191300        -0.142241
 C         2.394466         0.230739         1.100264
 H         3.997231        -2.748022         1.007524
 H         4.745275        -1.857815        -0.304333
 H         5.194476        -1.490399         1.342038
 H        -0.520355        -0.907915         0.568473
 H        -0.427226         1.016332         0.251464
 H        -0.423234        -0.300600        -1.117032
 H         2.564254         0.622336        -1.940384
 H         1.736136         1.931975        -0.980924
 H         4.637509         2.102944         0.100241
 H         2.051735         0.350824         2.164266
