19
Iteration:   155
 C         4.129958        -1.840580         0.727980
 C         3.167398        -0.815559         0.167915
 O         1.959460        -1.292816        -0.542056
 C         1.425452        -0.033527        -0.068512
 C        -0.094487        -0.140239         0.025587
 C         2.252185         1.084632        -0.994213
 C         3.459032         0.652566        -0.129608
 O         4.614692         1.357589         0.173621
 C         2.497612         0.243762         1.025524
 H         3.696864        -2.695175         1.247465
 H         4.666796        -2.132959        -0.077931
 H         4.819707        -1.183272         1.307523
 H        -0.432171        -0.964804         0.586470
 H        -0.582203         0.663236         0.396342
 H        -0.358074        -0.271574        -1.048588
 H         2.140566         1.137276        -2.061732
 H         2.017905         2.067379        -0.516708
 H         5.180725         1.503954        -0.619362
 H         2.347449         0.593264         2.084969
