19
Iteration:  4108charge 0 multiplicity 1
 C         4.297437        -1.836424         0.715187
 C         3.226082        -0.902822         0.336824
 O         2.057061        -1.324853        -0.325102
 C         1.399479        -0.031190        -0.096542
 C        -0.116630        -0.031896        -0.112865
 C         2.093544         1.043993        -1.001631
 C         3.356523         0.671581        -0.174003
 O         4.663202         1.300973         0.037585
 C         2.430866         0.254666         0.977234
 H         3.785130        -2.710835         1.261869
 H         4.842066        -2.247714        -0.219536
 H         5.075290        -1.260977         1.143792
 H        -0.593970        -0.329113         0.866108
 H        -0.346999         1.027939        -0.143090
 H        -0.547287        -0.394629        -1.079753
 H         2.207811         0.834878        -2.104842
 H         1.776200         2.091003        -0.910461
 H         4.528584         2.142689         0.452766
 H         2.237096         0.770482         2.063517
