19
Iteration:  4810charge 0 multiplicity 1
 C         4.102928        -1.844827         0.646248
 C         3.246955        -0.770077         0.353635
 O         1.999450        -1.238716        -0.417830
 C         1.385636         0.052511        -0.002722
 C        -0.018685        -0.203415        -0.083752
 C         2.224089         1.051671        -0.974406
 C         3.352544         0.746839        -0.059724
 O         4.670928         1.326490        -0.006402
 C         2.469318         0.283132         1.018143
 H         3.615062        -2.553598         1.383650
 H         4.344007        -2.368446        -0.241238
 H         5.090230        -1.648538         1.127213
 H        -0.283730        -1.358060         0.133922
 H        -0.739858         0.326034         0.613572
 H        -0.412322        -0.094328        -1.054862
 H         2.261438         0.706801        -1.994222
 H         1.693918         2.013219        -0.827486
 H         5.095467         0.945779        -0.782241
 H         2.192033         0.419830         2.124803
