19
Iteration:  4939
 C         4.208973        -1.831863         0.551779
 C         3.170490        -0.839312         0.265463
 O         1.951731        -1.283492        -0.307317
 C         1.417913         0.064940        -0.046220
 C        -0.066270        -0.185090        -0.160657
 C         2.189432         1.082310        -0.975511
 C         3.417864         0.634107        -0.034796
 O         4.639720         1.296014         0.106107
 C         2.420636         0.355794         1.066983
 H         3.954955        -2.620302         1.262416
 H         4.470332        -2.349588        -0.470096
 H         5.267722        -1.334929         0.737491
 H        -0.616679        -0.878627         0.572589
 H        -0.569467         0.775462         0.126777
 H        -0.465200        -0.286564        -1.117606
 H         2.435561         0.708293        -2.000801
 H         1.998009         2.217295        -0.992603
 H         5.330618         1.241657        -0.598096
 H         2.347891         0.526957         2.168172
