19
Iteration:  4776
 C         4.306702        -1.826236         0.634164
 C         3.190434        -0.849055         0.443732
 O         2.027032        -1.282426        -0.369528
 C         1.398592         0.025563        -0.123316
 C        -0.215900        -0.048507        -0.160649
 C         2.191975         1.019524        -0.983037
 C         3.391256         0.651981        -0.102036
 O         4.547999         1.326531         0.066667
 C         2.549796         0.227692         1.032721
 H         4.204722        -2.283754         1.614203
 H         4.262342        -2.532636        -0.153209
 H         5.234422        -1.165431         0.638725
 H        -0.480383        -1.094861         0.290342
 H        -0.500745         0.739244         0.582987
 H        -0.647311         0.221431        -1.109439
 H         2.307216         0.995685        -2.061818
 H         1.868815         2.052903        -0.683924
 H         4.986943         1.082128        -0.798166
 H         2.537088         0.436004         2.093885
