19
Iteration:  4121charge 0 multiplicity 1
 C         4.358007        -1.909901         0.757463
 C         3.206256        -0.793232         0.303944
 O         1.998854        -1.299030        -0.419699
 C         1.377426         0.006963        -0.115005
 C        -0.116699        -0.032192        -0.118825
 C         2.090164         1.032936        -1.044513
 C         3.348556         0.729964        -0.123081
 O         4.625162         1.224569         0.038717
 C         2.517792         0.293485         1.046297
 H         4.013215        -2.555674         1.601758
 H         4.701303        -2.478662        -0.130173
 H         5.171775        -1.399436         1.308224
 H        -0.485369        -0.568230         0.744128
 H        -0.616760         0.904070        -0.255217
 H        -0.301552        -0.843182        -0.929010
 H         1.974668         0.874394        -2.120578
 H         1.661121         1.952036        -0.729365
 H         4.560510         2.153956         0.423298
 H         2.690234         0.779403         2.161210
