19
Iteration:  2078
 C         4.161328        -1.843017         0.735422
 C         3.112955        -0.848680         0.412533
 O         2.103091        -1.263047        -0.517014
 C         1.419211         0.067980        -0.108737
 C        -0.028832        -0.113805         0.033049
 C         2.195518         1.110203        -1.000694
 C         3.326112         0.665342        -0.094188
 O         4.679142         1.224965        -0.127934
 C         2.404066         0.241397         1.091745
 H         3.769307        -2.657473         1.383505
 H         4.710881        -2.101695        -0.175483
 H         4.815373        -1.468482         1.501371
 H        -0.313638        -0.972441         0.605747
 H        -0.500770         0.892470         0.338432
 H        -0.292732        -0.193137        -1.085959
 H         2.231497         0.733330        -2.052650
 H         1.941640         2.149929        -0.803722
 H         4.753262         2.194608         0.049191
 H         2.020590         0.243288         2.180091
