19
Iteration:   721charge 0 multiplicity 1
 C         4.332872        -1.816809         0.594298
 C         3.144837        -0.947287         0.373704
 O         2.081591        -1.337260        -0.501845
 C         1.405940        -0.037508        -0.132678
 C        -0.026749         0.090415        -0.031467
 C         2.207152         0.986272        -0.983935
 C         3.298244         0.700381         0.030836
 O         4.556223         1.298651        -0.022113
 C         2.386750         0.223223         1.107824
 H         4.143049        -2.810787         1.042083
 H         4.828212        -1.940247        -0.422640
 H         5.094110        -1.324483         1.211488
 H        -0.509247        -0.873301         0.190834
 H        -0.223698         0.862479         0.677836
 H        -0.349836         0.290832        -1.041829
 H         2.224845         0.858014        -2.042829
 H         1.641319         1.938497        -0.825144
 H         4.522630         2.121011         0.483559
 H         2.165497         0.668721         2.063959
