19
Iteration:  4017
 C         4.247724        -1.735982         0.787865
 C         3.190410        -0.825822         0.315931
 O         2.030706        -1.298455        -0.399583
 C         1.388358        -0.010695        -0.071039
 C        -0.046981        -0.082722        -0.081023
 C         2.150508         1.113621        -1.038848
 C         3.371774         0.693359        -0.106270
 O         4.661194         1.166091        -0.083765
 C         2.401058         0.206214         1.046116
 H         3.951857        -2.500210         1.511737
 H         4.933289        -2.291228         0.119035
 H         5.092139        -1.082699         1.263103
 H        -0.284997        -1.082863         0.342151
 H        -0.702385         0.757162         0.354104
 H        -0.396352        -0.137915        -1.087921
 H         2.206331         1.139673        -2.173156
 H         1.611783         2.112891        -0.773293
 H         4.562517         2.009140         0.406434
 H         2.254631         0.456955         1.991830
