19
Iteration:  3495charge 0 multiplicity 1
 C         4.193689        -1.798820         0.738185
 C         3.183761        -0.784795         0.277452
 O         2.049824        -1.371776        -0.445865
 C         1.396101         0.045988        -0.094737
 C        -0.043008        -0.016467        -0.084711
 C         2.104381         0.947848        -1.030905
 C         3.401421         0.643118        -0.080115
 O         4.652879         1.232204         0.014345
 C         2.454596         0.286516         1.047167
 H         3.892920        -2.554999         1.455350
 H         4.892059        -2.203877        -0.009919
 H         4.841459        -1.063276         1.331007
 H        -0.414378        -0.876512         0.428474
 H        -0.402001         0.863933         0.543339
 H        -0.437570         0.174600        -0.996540
 H         2.009075         0.697296        -2.111263
 H         1.723498         1.968655        -0.873606
 H         4.628022         2.133144         0.322523
 H         2.466161         0.768472         1.999970
