19
Iteration:  4859charge 0 multiplicity 1
 C         4.293691        -1.830274         0.707338
 C         3.206537        -0.911869         0.293491
 O         2.037194        -1.345143        -0.522772
 C         1.412665         0.068731        -0.123392
 C        -0.069708         0.062090         0.068640
 C         2.151715         1.037337        -1.039060
 C         3.377254         0.621021        -0.139292
 O         4.509774         1.397442         0.054729
 C         2.431708         0.148181         1.047141
 H         4.047784        -2.818089         1.141851
 H         5.279236        -1.953230         0.102923
 H         4.604871        -1.235299         1.606103
 H        -0.497219        -0.388461         0.887772
 H        -0.310899         1.113907         0.127297
 H        -0.667185        -0.356337        -0.833883
 H         2.225773         0.926207        -2.150243
 H         1.983641         2.089482        -0.763847
 H         5.328671         0.856977        -0.051792
 H         2.331059         0.153916         2.096127
