19
Iteration:  2092
 C         4.172125        -1.797630         0.707724
 C         3.124562        -0.808698         0.339482
 O         2.107021        -1.275905        -0.491832
 C         1.422336         0.034652        -0.106540
 C        -0.075470        -0.047144        -0.063159
 C         2.255435         1.001254        -0.928441
 C         3.401415         0.670313         0.030701
 O         4.614508         1.183124        -0.171371
 C         2.369427         0.267632         1.126745
 H         3.734355        -2.704729         1.105859
 H         4.657607        -2.088564        -0.273969
 H         4.966184        -1.257723         1.316516
 H        -0.247913        -0.874343         0.594133
 H        -0.557785         0.848558         0.399805
 H        -0.579861        -0.380989        -1.023053
 H         2.448148         0.845982        -1.966002
 H         1.754976         1.982792        -0.741932
 H         4.544449         2.037692         0.248510
 H         2.431812         0.791894         2.124990
