19
Iteration:  4638
 C         4.118691        -1.811611         0.760948
 C         3.135834        -0.820990         0.370046
 O         2.121049        -1.309896        -0.500241
 C         1.460191         0.067776        -0.059230
 C        -0.050633        -0.113003        -0.065993
 C         2.178700         1.085808        -0.880706
 C         3.399869         0.642873        -0.118127
 O         4.549667         1.368170        -0.175202
 C         2.466095         0.199672         1.123744
 H         3.665959        -2.756492         1.209291
 H         4.763747        -2.046566        -0.049518
 H         4.733620        -1.432693         1.587117
 H        -0.476469        -0.954787         0.562771
 H        -0.559687         0.816770         0.210682
 H        -0.338225        -0.231838        -1.090809
 H         2.386557         1.000535        -1.971337
 H         1.890604         2.135270        -0.629806
 H         5.215726         0.664481        -0.281506
 H         2.212986         0.440521         2.144229
