19
Iteration:  2065
 C         4.195365        -1.844158         0.834572
 C         3.231687        -0.781513         0.256949
 O         1.975352        -1.230886        -0.482776
 C         1.428080         0.014607        -0.118073
 C        -0.075848        -0.102642        -0.022117
 C         2.174706         1.067981        -1.013567
 C         3.453479         0.715344        -0.072209
 O         4.682728         1.218449        -0.058641
 C         2.400682         0.188465         1.061023
 H         3.550454        -2.689931         1.113820
 H         4.718569        -2.333405         0.008835
 H         4.961256        -1.402233         1.415126
 H        -0.241925        -0.953697         0.747010
 H        -0.489615         0.745332         0.552520
 H        -0.710259        -0.368450        -0.861519
 H         2.085365         0.990585        -2.152600
 H         1.914647         2.127688        -0.841001
 H         4.510317         2.159957        -0.078246
 H         2.212101         0.391715         2.091862
