19
Iteration:  2308
 C         4.320102        -1.657057         0.624257
 C         3.203733        -0.854448         0.192429
 O         1.971874        -1.316101        -0.265429
 C         1.341267         0.012299        -0.155742
 C        -0.079312         0.051267        -0.069289
 C         2.153535         1.008016        -1.010336
 C         3.351636         0.601236        -0.085453
 O         4.677674         1.129567         0.100202
 C         2.485924         0.193782         0.999804
 H         3.822390        -2.468681         1.137212
 H         4.983839        -1.934570        -0.190748
 H         4.911454        -1.077227         1.381893
 H        -0.387177        -0.730036         0.483140
 H        -0.473022         1.045555         0.247487
 H        -0.579774        -0.264299        -1.054558
 H         2.178336         0.876090        -2.187213
 H         1.635618         1.956656        -0.750088
 H         4.561137         2.082693         0.234763
 H         2.366080         0.788874         1.857249
