19
Iteration:  4289charge 0 multiplicity 1
 C         4.289137        -1.728483         0.783864
 C         3.206699        -0.766270         0.234830
 O         1.951812        -1.346992        -0.415230
 C         1.332003         0.073778        -0.152737
 C        -0.103141        -0.092393        -0.085325
 C         2.231761         0.999108        -1.012911
 C         3.301100         0.684577        -0.093467
 O         4.664535         1.257532        -0.023197
 C         2.472806         0.221523         1.049862
 H         3.719951        -2.672610         1.100050
 H         4.940704        -1.950580        -0.110149
 H         5.056794        -1.703919         1.641894
 H        -0.333254        -0.487457         0.995703
 H        -0.755277         0.833157         0.079326
 H        -0.369949        -0.730788        -0.911765
 H         2.423147         0.682953        -2.032203
 H         1.891306         2.056303        -0.882583
 H         4.810406         1.851448         0.778337
 H         2.716389         0.417807         2.114953
