19
Iteration:  2883charge 0 multiplicity 1
 C         4.223870        -1.733590         0.750041
 C         3.164419        -0.867303         0.244698
 O         2.100217        -1.224159        -0.515468
 C         1.363967         0.027769        -0.118121
 C        -0.151306        -0.052914        -0.011373
 C         2.208038         0.998641        -0.945818
 C         3.388462         0.604755        -0.127501
 O         4.623900         1.195764         0.019970
 C         2.481382         0.222482         1.092068
 H         3.754078        -2.662117         1.130643
 H         4.811823        -1.990455        -0.163144
 H         4.871301        -1.276754         1.574655
 H        -0.239290        -0.761060         0.880555
 H        -0.822601         0.981808         0.063368
 H        -0.477316        -0.404413        -0.977926
 H         2.210049         0.886719        -2.013856
 H         2.013328         2.023533        -0.668462
 H         4.438657         2.100371        -0.193390
 H         2.443604         0.717241         2.141909
