19
Iteration:  2542
 C         4.219769        -1.912320         0.744761
 C         3.142415        -0.786289         0.359563
 O         2.150531        -1.220251        -0.586099
 C         1.436695         0.020725        -0.069009
 C        -0.087954        -0.039839        -0.056801
 C         2.213863         0.995726        -0.979183
 C         3.359898         0.644670         0.042500
 O         4.600256         1.254509        -0.154338
 C         2.372697         0.288254         1.147327
 H         3.760046        -2.645054         1.488036
 H         4.372498        -2.456395        -0.236438
 H         5.164491        -1.586694         1.075272
 H        -0.266473        -0.677772         0.885227
 H        -0.290574         0.974579         0.252804
 H        -0.573432        -0.398052        -0.907299
 H         2.197083         0.562869        -2.039202
 H         1.775845         2.072033        -0.802330
 H         4.545558         2.218702         0.107262
 H         2.150852         0.424037         2.202672
