19
Iteration:  1469charge 0 multiplicity 1
 C         4.320887        -1.680523         0.649702
 C         3.159228        -0.789109         0.301568
 O         2.021834        -1.285914        -0.477112
 C         1.365458         0.010194        -0.192658
 C        -0.141844        -0.059321        -0.007646
 C         2.340766         1.031783        -0.971147
 C         3.354668         0.638175        -0.008842
 O         4.640232         1.127565        -0.038071
 C         2.364775         0.189481         1.138610
 H         3.858810        -2.547123         1.232595
 H         4.963327        -1.849448        -0.341764
 H         4.935628        -1.245321         1.451442
 H        -0.711786        -0.823957         0.551600
 H        -0.516493         0.835865         0.531809
 H        -0.701967        -0.069833        -1.017898
 H         2.497838         0.991426        -2.082583
 H         1.918818         2.026916        -0.778377
 H         4.705944         2.104320         0.083673
 H         2.024362         0.576585         2.151366
