19
Iteration:  1410charge 0 multiplicity 1
 C         4.313638        -1.818447         0.577650
 C         3.185554        -0.876139         0.232856
 O         1.911024        -1.296747        -0.330390
 C         1.373681         0.031697        -0.045304
 C        -0.167802        -0.082123        -0.153845
 C         2.205938         1.033915        -0.979715
 C         3.402268         0.665078        -0.106828
 O         4.657664         1.298080         0.105426
 C         2.517441         0.243082         1.048681
 H         3.927541        -2.642312         1.260035
 H         4.681226        -2.409643        -0.265117
 H         5.245505        -1.254335         0.915771
 H        -0.633763        -0.465730         0.745097
 H        -0.419663         0.965440        -0.366775
 H        -0.325617        -0.469195        -1.153121
 H         2.168420         0.830390        -2.050260
 H         1.854873         2.012519        -0.639424
 H         4.516301         2.079495         0.643042
 H         2.646099         0.529460         2.090771
