19
Iteration:  4161
 C         4.184138        -1.712994         0.742458
 C         3.152908        -0.815402         0.394225
 O         2.015245        -1.312523        -0.523267
 C         1.414725         0.000266        -0.150518
 C        -0.101332        -0.170783        -0.014223
 C         2.286863         1.080860        -0.984193
 C         3.398897         0.731082        -0.019321
 O         4.779900         1.261424        -0.133456
 C         2.269377         0.214477         1.131617
 H         4.000471        -2.403796         1.623880
 H         4.219805        -2.544935        -0.028096
 H         5.166231        -1.278868         0.806680
 H        -0.372133        -0.829860         0.877448
 H        -0.702833         0.728579        -0.130861
 H        -0.539137        -0.715145        -0.850487
 H         2.430273         0.900661        -2.104371
 H         1.789175         2.047465        -0.675974
 H         4.822112         2.196216         0.021643
 H         1.935142         0.353682         2.219196
