19
Iteration:  1618charge 0 multiplicity 1
 C         4.320835        -1.634093         0.633555
 C         3.152800        -0.822267         0.376332
 O         2.036757        -1.314125        -0.399985
 C         1.346753         0.047294        -0.064360
 C        -0.109510         0.021120        -0.144245
 C         2.225863         1.025153        -0.952205
 C         3.367229         0.563126        -0.055471
 O         4.635189         1.123955        -0.042280
 C         2.406873         0.194534         1.066400
 H         4.251949        -2.528176         1.362592
 H         4.627206        -2.024378        -0.326423
 H         5.031594        -0.802096         0.645880
 H        -0.636557        -0.529065         0.737029
 H        -0.590481         1.054572        -0.128495
 H        -0.530747        -0.376928        -1.150792
 H         2.362415         0.766646        -2.077633
 H         1.851011         2.027425        -0.666017
 H         4.738645         1.861644         0.608458
 H         2.345285         0.409196         2.210626
