19
Iteration:  4548
 C         4.224633        -1.813983         0.526857
 C         3.136821        -0.810177         0.372670
 O         2.051040        -1.329881        -0.371551
 C         1.336458        -0.025770        -0.157691
 C        -0.081098        -0.041586        -0.003818
 C         2.250870         0.855440        -1.058736
 C         3.411395         0.670337        -0.084437
 O         4.603118         1.431016         0.077550
 C         2.363245         0.309818         1.048206
 H         4.094014        -2.557661         1.329380
 H         4.483454        -2.256436        -0.427678
 H         5.124846        -1.177217         0.864463
 H        -0.519369        -0.669729         0.846834
 H        -0.183130         1.048410         0.250352
 H        -0.504836        -0.234479        -0.951188
 H         2.533847         0.774637        -2.120880
 H         2.019776         1.922806        -0.792964
 H         5.395406         0.890676         0.306119
 H         2.105130         0.482248         2.142579
