19
Iteration:  4660
 C         4.153631        -1.907916         0.736076
 C         3.240411        -0.767894         0.255162
 O         2.032560        -1.194330        -0.426367
 C         1.418273         0.032313        -0.061361
 C        -0.135966        -0.184341        -0.068870
 C         2.128430         1.025229        -0.960110
 C         3.437240         0.718200        -0.057200
 O         4.652690         1.347502        -0.043835
 C         2.452232         0.285034         1.043216
 H         3.543599        -2.815424         1.112879
 H         4.875563        -2.218908        -0.002308
 H         4.683558        -1.646215         1.646518
 H        -0.341211        -0.870550         0.801060
 H        -0.811456         0.659897        -0.006189
 H        -0.536666        -0.669178        -0.944404
 H         2.219270         0.750628        -2.063115
 H         1.794309         2.083108        -0.868817
 H         5.437071         0.912803        -0.456568
 H         2.572804         0.537268         2.118998
