19
Iteration:  1706
 C         4.151934        -1.933634         0.748006
 C         3.166919        -0.881458         0.361834
 O         2.012580        -1.291686        -0.499947
 C         1.460254         0.040203        -0.145000
 C        -0.048125        -0.085694         0.058275
 C         2.165883         1.024161        -1.061593
 C         3.449985         0.711276        -0.111798
 O         4.663259         1.373814        -0.020190
 C         2.419395         0.244570         1.028440
 H         3.550315        -2.751768         1.284055
 H         4.857652        -2.230042        -0.003923
 H         4.773012        -1.587682         1.620661
 H        -0.290500        -0.959069         0.748535
 H        -0.448537         0.828247         0.525673
 H        -0.462162        -0.133470        -1.000971
 H         2.277296         0.824431        -2.202341
 H         1.859258         2.073584        -0.992916
 H         4.420836         2.311567         0.188508
 H         2.191195         0.442941         2.067642
