19
Iteration:    20
 C         4.327214        -1.759343         0.531785
 C         3.226768        -0.780706         0.175113
 O         1.963576        -1.273044        -0.464893
 C         1.417964         0.023735        -0.033728
 C        -0.065994        -0.072259        -0.142898
 C         2.132283         0.990870        -0.939299
 C         3.328430         0.751466         0.097684
 O         4.760777         1.200688         0.098591
 C         2.281087         0.240363         1.172251
 H         3.828010        -2.423465         1.195083
 H         4.915349        -2.380556        -0.253968
 H         5.182027        -1.255881         0.882281
 H        -0.474564        -0.837631         0.551303
 H        -0.687664         0.856072         0.180847
 H        -0.270506        -0.222553        -1.131373
 H         2.276481         0.618919        -1.955820
 H         1.739917         1.993141        -0.867137
 H         4.900655         1.181068        -0.844102
 H         1.960527         0.468453         2.241566
