19
Iteration:   737charge 0 multiplicity 1
 C         4.361748        -1.713811         0.514929
 C         3.202895        -0.775231         0.359113
 O         2.050537        -1.389257        -0.376389
 C         1.473670        -0.083631        -0.202553
 C        -0.078872         0.094178        -0.089256
 C         2.208204         1.062752        -0.965650
 C         3.304749         0.631799        -0.055384
 O         4.507032         1.224474         0.033809
 C         2.379580         0.138411         1.083275
 H         3.953084        -2.588287         1.141835
 H         4.649785        -2.073901        -0.450206
 H         5.177913        -1.257675         1.112867
 H        -0.552591        -0.588365         0.631942
 H        -0.198284         1.042809         0.563405
 H        -0.737924         0.182910        -1.001177
 H         2.573370         0.863781        -2.021791
 H         1.975249         2.081014        -0.665531
 H         4.498773         1.879672         0.729738
 H         2.244760         0.395331         2.160112
