19
Iteration:  1651
 C         4.271538        -1.800898         0.681035
 C         3.210990        -0.824077         0.318771
 O         2.007180        -1.294067        -0.438389
 C         1.411376        -0.021883        -0.084098
 C        -0.076934         0.035008        -0.083578
 C         2.187302         0.929203        -0.965836
 C         3.370500         0.718355        -0.001298
 O         4.650819         1.239210        -0.077419
 C         2.345386         0.250370         1.055263
 H         4.062374        -2.831347         1.169453
 H         4.691674        -2.069036        -0.272210
 H         4.887965        -1.217465         1.412834
 H        -0.431764        -0.888149         0.529688
 H        -0.217553         1.026236         0.422560
 H        -0.565823        -0.094514        -1.128599
 H         2.525849         0.682670        -2.064240
 H         1.773923         1.956411        -0.907622
 H         4.652522         2.134893         0.303499
 H         2.181538         0.307590         2.199246
