19
Iteration:   553charge 0 multiplicity 1
 C         4.240719        -1.738403         0.447845
 C         3.139371        -0.861808         0.329169
 O         2.021360        -1.279816        -0.387445
 C         1.431447         0.012428        -0.033498
 C        -0.033940        -0.027015        -0.094133
 C         2.246039         0.925138        -1.000914
 C         3.336931         0.751706        -0.021771
 O         4.667413         1.262581         0.060921
 C         2.322630         0.206888         1.116595
 H         4.118518        -2.689830         1.041041
 H         4.666844        -2.027366        -0.554835
 H         5.114229        -1.227403         0.929892
 H        -0.542688        -0.679735         0.611252
 H        -0.368370         0.973577         0.335428
 H        -0.198063        -0.187488        -1.157609
 H         2.479276         0.353488        -1.970330
 H         1.865945         1.926156        -1.152187
 H         4.460160         2.098060         0.496544
 H         1.916819         0.074940         2.189607
