19
Iteration:  2059
 C         4.172620        -1.823991         0.795178
 C         3.268707        -0.787050         0.191539
 O         1.981673        -1.244231        -0.470417
 C         1.388823         0.025254        -0.158436
 C        -0.098799        -0.101969         0.017830
 C         2.193723         1.040629        -0.975268
 C         3.409081         0.653016        -0.086958
 O         4.699021         1.243871        -0.023543
 C         2.407191         0.216394         1.033672
 H         3.571867        -2.585414         1.367069
 H         4.841285        -2.373400         0.075776
 H         4.927424        -1.440101         1.570742
 H        -0.230055        -0.870599         0.703444
 H        -0.645654         0.768416         0.478486
 H        -0.724053        -0.283669        -0.933391
 H         2.322540         0.963193        -2.040435
 H         1.711955         2.019073        -0.762460
 H         4.638962         2.206936        -0.082953
 H         2.533726         0.498010         2.165347
