19
Iteration:  3066charge 0 multiplicity 1
 C         4.186302        -1.780437         0.797497
 C         3.125533        -0.866668         0.314544
 O         1.998017        -1.272347        -0.478942
 C         1.362474         0.043775        -0.163548
 C        -0.055251        -0.126529        -0.024270
 C         2.231936         1.073953        -0.910399
 C         3.377505         0.625376        -0.083444
 O         4.668296         1.240067        -0.116448
 C         2.478560         0.237845         1.045142
 H         3.757051        -2.604175         1.383659
 H         4.851145        -2.127345         0.005302
 H         4.894661        -1.217304         1.504746
 H        -0.542826        -0.798823         0.752183
 H        -0.531251         0.903932         0.128998
 H        -0.286668        -0.390233        -1.151453
 H         2.449366         0.987242        -2.060170
 H         1.963018         2.118163        -0.571059
 H         4.557295         2.192715         0.169426
 H         2.473031         0.523307         2.107672
