19
Iteration:  1579
 C         4.257963        -1.795975         0.610297
 C         3.200226        -0.794683         0.273697
 O         2.051300        -1.282875        -0.341246
 C         1.398050         0.022220        -0.144311
 C        -0.192161        -0.030997        -0.030255
 C         2.212994         1.041503        -1.035209
 C         3.370763         0.726991        -0.080793
 O         4.611426         1.188930         0.106362
 C         2.467197         0.213515         1.034463
 H         4.034211        -2.582518         1.390151
 H         4.348135        -2.621000        -0.221960
 H         5.183506        -1.244860         0.853443
 H        -0.554466        -0.694152         0.695685
 H        -0.549517         0.930567        -0.203068
 H        -0.403259        -0.656838        -0.902744
 H         2.293466         0.678462        -2.045879
 H         1.969683         2.129614        -0.933989
 H         4.592196         2.138395        -0.002609
 H         2.632796         0.400238         2.060262
