19
Iteration:  3182
 C         4.299912        -1.671087         0.574917
 C         3.134467        -0.730270         0.365130
 O         2.002193        -1.424953        -0.368320
 C         1.373592        -0.053768        -0.097975
 C        -0.094996         0.053282        -0.133219
 C         2.220800         0.985455        -1.022520
 C         3.358578         0.722854        -0.037624
 O         4.702318         1.149300        -0.036811
 C         2.331431         0.212185         1.151235
 H         3.985719        -2.129877         1.489441
 H         4.596719        -2.283444        -0.272827
 H         5.166755        -0.960110         0.864713
 H        -0.487573        -0.319483         0.811763
 H        -0.288787         1.084322        -0.186260
 H        -0.372931        -0.536176        -1.047657
 H         2.418583         0.549065        -2.021382
 H         1.969354         2.052283        -1.049482
 H         4.782739         1.999968         0.465864
 H         2.200221         0.284195         2.287320
