19
Iteration:  1344charge 0 multiplicity 1
 C         4.165383        -1.795831         0.706926
 C         3.142853        -0.879547         0.276369
 O         2.100259        -1.310548        -0.527342
 C         1.339544         0.092402        -0.150199
 C        -0.039295        -0.060497         0.046434
 C         2.211353         1.039862        -1.037193
 C         3.428754         0.654915        -0.064518
 O         4.640444         1.380485        -0.007616
 C         2.425262         0.122978         1.053651
 H         3.770701        -2.681267         1.383604
 H         4.491576        -2.467227        -0.113514
 H         5.026859        -1.224847         1.269042
 H        -0.477328        -0.907661         0.578950
 H        -0.465717         0.897225         0.539730
 H        -0.737340         0.063910        -0.813133
 H         2.254966         0.656517        -2.052362
 H         1.836480         2.117258        -0.903827
 H         4.702814         1.727073         0.921164
 H         2.396653         0.177587         2.216950
