19
Iteration:  2162
 C         4.359186        -1.773618         0.635067
 C         3.172026        -0.856958         0.336108
 O         2.046118        -1.371229        -0.370340
 C         1.393373         0.016463        -0.087019
 C        -0.123509         0.105888        -0.047073
 C         2.276774         0.986298        -1.117795
 C         3.340028         0.689825        -0.062881
 O         4.584582         1.203654         0.028625
 C         2.344511         0.223027         1.064711
 H         4.221989        -2.704378         1.340760
 H         4.523943        -2.189369        -0.421998
 H         5.251640        -1.120043         0.780614
 H        -0.576094        -0.609828         0.800815
 H        -0.493536         1.110381         0.210420
 H        -0.709224        -0.303210        -0.843670
 H         2.455322         0.699694        -2.234740
 H         2.058994         2.097329        -0.857082
 H         4.574657         2.127722         0.350212
 H         2.183113         0.438874         2.148843
