19
Iteration:   438
 C         4.225971        -1.814788         0.575530
 C         3.124273        -0.924241         0.306441
 O         2.044955        -1.252351        -0.470154
 C         1.410939        -0.028169        -0.145285
 C        -0.041423        -0.040875        -0.003914
 C         2.229466         0.999727        -1.006636
 C         3.361382         0.625350        -0.033989
 O         4.616425         1.305466         0.101488
 C         2.404622         0.262459         1.054461
 H         4.095781        -2.624880         1.207335
 H         4.606255        -2.084123        -0.389242
 H         5.074321        -1.235836         0.959634
 H        -0.459174        -0.653727         0.800996
 H        -0.416875         0.931107         0.153113
 H        -0.429678        -0.510964        -0.993576
 H         2.340092         1.044288        -2.065622
 H         1.904024         2.047762        -0.744450
 H         4.449330         2.231154         0.325318
 H         2.401678         0.610669         2.144682
