19
Iteration:  2020charge 0 multiplicity 1
 C         4.328726        -1.826079         0.740380
 C         3.195588        -0.828085         0.292031
 O         1.988968        -1.259528        -0.453596
 C         1.399615         0.016724        -0.177446
 C        -0.028423         0.064766         0.004666
 C         2.167284         0.958238        -1.008550
 C         3.367079         0.660732        -0.116403
 O         4.631441         1.266067         0.010298
 C         2.362500         0.166215         1.055263
 H         3.756653        -2.542204         1.288426
 H         4.707165        -2.439172        -0.068825
 H         5.094955        -1.216158         1.117466
 H        -0.291789        -0.763989         0.799830
 H        -0.355739         1.046389         0.260561
 H        -0.373563        -0.335845        -0.906996
 H         2.234746         0.724634        -2.106534
 H         1.842752         2.009491        -0.861190
 H         4.352663         2.060707         0.495497
 H         2.329069         0.365505         2.048289
