19
Iteration:  3166
 C         4.303913        -1.674332         0.675535
 C         3.193947        -0.843273         0.292058
 O         2.056145        -1.314048        -0.369996
 C         1.406266        -0.039467        -0.112825
 C        -0.138119         0.045716        -0.106892
 C         2.182797         0.906879        -0.992022
 C         3.353343         0.637610        -0.047774
 O         4.643837         1.173384        -0.001648
 C         2.398614         0.290435         1.037102
 H         4.235629        -2.480149         1.464588
 H         4.529280        -2.209194        -0.294233
 H         5.205471        -1.177461         0.870906
 H        -0.592348        -0.387581         0.794372
 H        -0.492868         1.186662        -0.078307
 H        -0.661240        -0.090298        -1.073121
 H         2.302368         0.714409        -2.140077
 H         1.676698         1.904176        -0.804039
 H         4.656545         1.838925         0.681930
 H         2.265907         0.623152         2.040442
