19
Iteration:  2564
 C         4.106294        -1.859696         0.766488
 C         3.164801        -0.765314         0.280287
 O         2.127290        -1.271305        -0.479228
 C         1.392640         0.038461        -0.114511
 C        -0.119578        -0.108474         0.014792
 C         2.251728         1.085573        -0.962882
 C         3.397866         0.664223        -0.057417
 O         4.660329         1.278020        -0.129531
 C         2.403869         0.169471         1.068665
 H         3.787228        -2.340049         1.739677
 H         4.146454        -2.565785        -0.094788
 H         5.085191        -1.456239         0.883458
 H        -0.410185        -1.041713         0.611395
 H        -0.586185         0.816821         0.318750
 H        -0.319348        -0.352560        -0.986045
 H         2.479050         1.016304        -2.068529
 H         1.801072         2.068746        -0.585964
 H         4.630773         2.121334         0.314893
 H         2.349317         0.499910         2.111553
