19
Iteration:   815charge 0 multiplicity 1
 C         4.179000        -1.868355         0.600870
 C         3.135826        -0.839731         0.376675
 O         2.080364        -1.287970        -0.504882
 C         1.441188        -0.063062        -0.206253
 C        -0.068526        -0.140038        -0.052358
 C         2.132354         1.127145        -0.915478
 C         3.380448         0.764101         0.019853
 O         4.754627         1.307927        -0.036627
 C         2.325350         0.193945         1.128511
 H         3.913243        -2.605184         1.324606
 H         4.295195        -2.272133        -0.422427
 H         5.216023        -1.516906         0.836881
 H        -0.390746        -0.461573         0.925299
 H        -0.439480         0.864510        -0.192036
 H        -0.562168        -0.943121        -0.684249
 H         2.249917         1.302246        -2.024945
 H         1.686518         2.015630        -0.497121
 H         4.777769         2.220171         0.316476
 H         2.322882         0.551582         2.114007
