19
Iteration:  2147
 C         4.357188        -1.712017         0.562161
 C         3.165875        -0.811689         0.313833
 O         1.961182        -1.283555        -0.347272
 C         1.381258        -0.066284        -0.085002
 C        -0.119498         0.063923        -0.077646
 C         2.233718         0.967000        -1.025383
 C         3.387811         0.545477        -0.128633
 O         4.582335         1.186284         0.092146
 C         2.457689         0.261232         1.058973
 H         4.061637        -2.335664         1.375004
 H         4.712649        -2.221713        -0.332111
 H         5.168484        -1.131388         1.111444
 H        -0.626005        -0.493465         0.734783
 H        -0.189251         1.127183         0.011101
 H        -0.408451        -0.206181        -1.121435
 H         2.338177         0.720054        -2.045865
 H         1.791746         1.990165        -0.875944
 H         4.292844         2.077273         0.212902
 H         2.521562         0.612310         2.054953
