19
Iteration:  4111charge 0 multiplicity 1
 C         4.314820        -1.870902         0.727203
 C         3.222367        -0.884913         0.332976
 O         2.043179        -1.316081        -0.345694
 C         1.398704        -0.023412        -0.096693
 C        -0.102945        -0.031414        -0.110120
 C         2.061902         1.054317        -1.012924
 C         3.336316         0.694019        -0.182846
 O         4.667912         1.284210         0.044678
 C         2.445437         0.265828         0.992193
 H         3.940688        -2.709458         1.299041
 H         4.836559        -2.366284        -0.101900
 H         5.146440        -1.288996         1.199004
 H        -0.581368        -0.409469         0.768803
 H        -0.436776         0.997799        -0.251347
 H        -0.599753        -0.477726        -1.038045
 H         2.216127         0.830328        -2.045160
 H         1.775759         2.064327        -0.866956
 H         4.572182         2.180629         0.466665
 H         2.367144         0.805026         2.048001
