19
Iteration:  4537
 C         4.161570        -1.783354         0.559243
 C         3.097987        -0.837282         0.369244
 O         2.074775        -1.371633        -0.426026
 C         1.456366         0.015651        -0.098125
 C        -0.088756        -0.047966        -0.061297
 C         2.242299         0.932277        -1.014277
 C         3.439333         0.636973        -0.019096
 O         4.577133         1.443488         0.052305
 C         2.426709         0.324957         1.068862
 H         3.920030        -2.617511         1.236453
 H         4.307988        -2.232553        -0.425451
 H         5.138981        -1.327849         0.888232
 H        -0.276934        -0.699666         0.827792
 H        -0.585557         0.952133         0.115342
 H        -0.579594        -0.520286        -0.894763
 H         2.196105         0.534476        -2.058353
 H         1.800537         1.953851        -1.025017
 H         5.368938         0.826060        -0.001773
 H         2.183979         0.661409         2.125498
