19
Iteration:  3356
 C         4.361957        -1.779998         0.631544
 C         3.166563        -0.898902         0.348627
 O         2.023289        -1.309502        -0.413651
 C         1.389406         0.036413        -0.051923
 C        -0.145945        -0.019237        -0.151698
 C         2.253443         1.032576        -1.035629
 C         3.300432         0.586240         0.032163
 O         4.690303         1.180648        -0.002533
 C         2.327167         0.344718         1.134305
 H         4.196809        -2.504355         1.374859
 H         4.585507        -2.238315        -0.305763
 H         5.130192        -1.025704         1.024399
 H        -0.432941        -0.565530         0.772440
 H        -0.517743         1.039982        -0.099618
 H        -0.504386        -0.460919        -1.082836
 H         2.396825         0.716598        -2.090760
 H         1.980998         2.099193        -1.100759
 H         4.457150         2.097499        -0.301120
 H         2.185825         0.835966         2.045777
