19
Iteration:  1042
 C         4.354690        -1.866177         0.655247
 C         3.254369        -0.778339         0.225899
 O         1.957483        -1.258434        -0.481641
 C         1.404381         0.031686        -0.110591
 C        -0.112464        -0.068707         0.003619
 C         2.102547         1.035036        -1.029307
 C         3.389621         0.697131        -0.091039
 O         4.608003         1.210935         0.196016
 C         2.464382         0.248407         0.948077
 H         3.941464        -2.713099         1.248519
 H         4.775944        -2.375138        -0.210746
 H         5.078108        -1.468393         1.425820
 H        -0.418813        -0.732380         0.831856
 H        -0.536007         0.978637         0.057405
 H        -0.540507        -0.487623        -0.949624
 H         2.182424         0.777351        -2.115831
 H         1.907921         2.043055        -0.726236
 H         4.629831         2.191490         0.284443
 H         2.371947         0.522202         1.958754
