19
Iteration:  1958
 C         4.403331        -1.793877         0.549509
 C         3.185220        -0.839205         0.262145
 O         1.929911        -1.321906        -0.306056
 C         1.363397         0.010257        -0.042188
 C        -0.113938        -0.003597        -0.136438
 C         2.220043         1.050543        -1.044056
 C         3.294463         0.705651        -0.075887
 O         4.606358         1.150144         0.079991
 C         2.487684         0.319983         1.114386
 H         4.223553        -2.651646         1.365230
 H         4.692759        -2.308854        -0.401060
 H         5.338246        -1.431538         0.995044
 H        -0.670501        -0.804328         0.430451
 H        -0.671931         0.955316        -0.060498
 H        -0.332680        -0.379684        -1.187368
 H         2.484056         0.583241        -2.036081
 H         1.820686         2.063394        -1.030797
 H         4.550760         2.079336         0.383392
 H         2.627598         0.807337         2.095970
