19
Iteration:  2009
 C         4.327189        -1.840489         0.633891
 C         3.171812        -0.869359         0.290159
 O         2.058914        -1.311100        -0.428614
 C         1.402202        -0.014835        -0.158061
 C        -0.114854         0.077048        -0.039213
 C         2.270282         0.960145        -1.013122
 C         3.324247         0.692008         0.029656
 O         4.557990         1.255963        -0.035835
 C         2.392534         0.238266         1.061620
 H         4.098399        -2.442443         1.516085
 H         4.804243        -2.411436        -0.150904
 H         5.100058        -1.298232         1.119709
 H        -0.452463        -0.545004         0.907813
 H        -0.477395         1.066365         0.189001
 H        -0.739114        -0.175486        -0.855086
 H         2.359208         0.703728        -2.108331
 H         2.038926         2.038893        -0.944554
 H         4.745651         2.014372         0.584220
 H         2.100924         0.576898         1.965669
