19
Iteration:  3789charge 0 multiplicity 1
 C         4.224092        -1.893930         0.713751
 C         3.183475        -0.808781         0.330602
 O         2.052805        -1.353374        -0.423442
 C         1.399383         0.004674        -0.208067
 C        -0.049601        -0.045037        -0.070620
 C         2.141091         0.954414        -1.080285
 C         3.310463         0.769902        -0.020009
 O         4.591251         1.297096        -0.009115
 C         2.567391         0.315938         1.092112
 H         3.896151        -2.455629         1.550700
 H         4.464779        -2.552121        -0.094157
 H         5.117094        -1.465503         1.277674
 H        -0.512426        -0.519076         0.893353
 H        -0.327825         1.123585         0.030930
 H        -0.635315        -0.644705        -0.780542
 H         2.301033         0.670474        -2.118724
 H         1.648798         1.927395        -1.059448
 H         4.507304         2.099106         0.496750
 H         2.653503         0.714034         2.086228
