19
Iteration:  2894charge 0 multiplicity 1
 C         4.156277        -1.753334         0.774800
 C         3.182666        -0.769823         0.242791
 O         2.034791        -1.252700        -0.572780
 C         1.408166         0.065234        -0.055206
 C        -0.042901        -0.103964         0.003414
 C         2.266043         1.016704        -0.936206
 C         3.403934         0.621386        -0.052067
 O         4.630958         1.224676        -0.088311
 C         2.332941         0.164420         1.087130
 H         3.761236        -2.679234         1.232322
 H         4.896271        -2.056731        -0.018419
 H         4.777692        -1.181063         1.530803
 H        -0.406322        -0.849065         0.777985
 H        -0.538213         0.967845         0.280251
 H        -0.417839        -0.559980        -0.905881
 H         2.370045         0.779253        -1.990339
 H         1.985098         2.050431        -0.805682
 H         4.607509         2.199681        -0.001035
 H         2.557516         0.451864         2.150070
