19
Iteration:  3420charge 0 multiplicity 1
 C         4.258713        -1.812752         0.765980
 C         3.193211        -0.814800         0.256069
 O         2.003814        -1.278241        -0.412155
 C         1.386284        -0.028899        -0.102464
 C        -0.095093        -0.002818        -0.125472
 C         2.165788         1.019474        -1.035944
 C         3.392972         0.620259        -0.085042
 O         4.603312         1.236021         0.011436
 C         2.495411         0.291308         1.068424
 H         3.768240        -2.584661         1.294536
 H         4.647093        -2.260018        -0.133484
 H         5.206139        -1.440431         1.267346
 H        -0.319616        -0.527955         0.851257
 H        -0.718031         0.986697         0.001042
 H        -0.521351        -0.609698        -0.926192
 H         2.287929         0.636626        -2.025948
 H         2.041798         2.069490        -0.918245
 H         4.624365         2.126500         0.483255
 H         2.432607         0.580649         2.073698
