19
Iteration:   103charge 0 multiplicity 1
 C         4.157780        -1.872570         0.577273
 C         3.193352        -0.796427         0.241130
 O         2.149204        -1.276547        -0.565273
 C         1.376433        -0.108478        -0.145338
 C        -0.061987         0.039937         0.043084
 C         2.241982         0.905424        -0.901802
 C         3.354572         0.717634        -0.046670
 O         4.515331         1.446306         0.166556
 C         2.455837         0.198470         1.030600
 H         3.363048        -2.552549         1.092555
 H         4.524963        -2.434761        -0.294774
 H         4.903772        -1.504251         1.409020
 H        -0.438612        -0.514707         0.928659
 H        -0.269263         1.109652         0.292167
 H        -0.736244        -0.157785        -0.923768
 H         2.373161         0.484550        -1.947529
 H         1.836370         1.931041        -1.096053
 H         5.262149         0.992277        -0.322550
 H         2.663705         0.496540         2.121798
