19
Iteration:   337charge 0 multiplicity 1
 C         4.240857        -1.770424         0.708992
 C         3.301139        -0.737114         0.229196
 O         2.047812        -1.286558        -0.604747
 C         1.387707        -0.017609        -0.094545
 C        -0.131394        -0.056845         0.001218
 C         2.101703         1.030601        -0.910848
 C         3.371154         0.689284        -0.025322
 O         4.692343         1.182034         0.068518
 C         2.407838         0.203226         1.040308
 H         3.722012        -2.535241         1.162620
 H         4.619884        -2.419950        -0.153345
 H         5.076982        -1.486983         1.316653
 H        -0.565159        -0.868071         0.620278
 H        -0.479806         1.007976         0.275272
 H        -0.509668        -0.086849        -1.062140
 H         2.081137         0.863601        -2.013815
 H         1.606031         1.979881        -0.546669
 H         4.657715         2.145759        -0.029276
 H         2.537883         0.539707         2.076724
