19
Iteration:  1975charge 0 multiplicity 1
 C         4.297055        -1.739116         0.494072
 C         3.182112        -0.846949         0.330393
 O         1.974688        -1.297193        -0.294536
 C         1.415869         0.022086        -0.091091
 C        -0.077891         0.040393        -0.167239
 C         2.188414         0.888756        -1.004519
 C         3.378513         0.637262        -0.035993
 O         4.652538         1.241552         0.032940
 C         2.393037         0.268624         1.093808
 H         4.078340        -2.437769         1.256595
 H         4.589834        -2.279665        -0.396872
 H         5.053259        -0.998260         0.769547
 H        -0.431553        -0.665230         0.669892
 H        -0.333380         1.060800         0.040876
 H        -0.436073        -0.354469        -1.084521
 H         2.149241         0.522574        -2.030640
 H         1.844570         1.942233        -0.822695
 H         4.754538         1.955865         0.703210
 H         2.101772         0.452664         2.108709
