19
Iteration:   985charge 0 multiplicity 1
 C         4.241561        -1.934620         0.608449
 C         3.236063        -0.856876         0.315620
 O         2.115058        -1.217043        -0.572997
 C         1.371390        -0.050081        -0.102729
 C        -0.125175        -0.050166        -0.075051
 C         2.155556         1.015973        -0.922749
 C         3.342629         0.809801         0.083846
 O         4.637206         1.317531        -0.060248
 C         2.385153         0.147708         1.184635
 H         3.796406        -2.542575         1.499298
 H         4.578633        -2.583296        -0.155535
 H         5.145919        -1.393178         0.901501
 H        -0.497886        -0.208583         0.950245
 H        -0.455531         1.056936        -0.377677
 H        -0.448916        -0.710071        -0.899848
 H         2.387004         0.798829        -1.994227
 H         1.734660         2.064692        -1.021097
 H         4.759842         2.161970         0.383818
 H         2.410558         0.331662         2.195528
