19
Iteration:  4656
 C         4.163584        -1.883826         0.752158
 C         3.229431        -0.748965         0.274843
 O         2.013971        -1.165740        -0.456514
 C         1.407889        -0.024471        -0.069117
 C        -0.085507        -0.176570        -0.082606
 C         2.156904         1.007117        -0.948635
 C         3.422181         0.675897        -0.056671
 O         4.650285         1.349735        -0.082932
 C         2.417926         0.285858         1.097802
 H         3.485190        -2.723830         1.027197
 H         4.806775        -2.264679        -0.048766
 H         4.729865        -1.645478         1.731537
 H        -0.251241        -0.907272         0.762689
 H        -0.713694         0.732144         0.033223
 H        -0.524088        -0.603794        -0.974296
 H         1.996092         0.836587        -2.002871
 H         1.891314         2.056003        -0.749218
 H         5.483751         0.998077        -0.387834
 H         2.649777         0.537937         2.081986
