19
Iteration:  1211charge 0 multiplicity 1
 C         4.255599        -1.828842         0.648806
 C         3.231454        -0.774655         0.184065
 O         2.046171        -1.283761        -0.417589
 C         1.376013        -0.028627        -0.098421
 C        -0.163109        -0.041554        -0.014299
 C         2.201092         1.103410        -1.052698
 C         3.312972         0.687283        -0.105791
 O         4.639321         1.236414         0.140428
 C         2.514424         0.196235         0.997350
 H         3.629554        -2.442939         1.390839
 H         4.578696        -2.470751        -0.244211
 H         5.121899        -1.417283         1.178698
 H        -0.576483        -0.324480         0.934994
 H        -0.356300         0.998013        -0.300384
 H        -0.461320        -0.789835        -0.685506
 H         2.266791         0.802572        -2.054229
 H         1.671838         2.108711        -0.973937
 H         4.573846         1.835025         0.926481
 H         2.577036         0.265281         2.008388
