19
Iteration:    84
 C         4.257055        -1.840360         0.570119
 C         3.214362        -0.804338         0.244929
 O         2.009679        -1.338723        -0.439160
 C         1.383763        -0.044804        -0.097021
 C        -0.124560         0.044961        -0.083885
 C         2.151450         0.984189        -1.071438
 C         3.377357         0.710568        -0.013200
 O         4.574548         1.408877         0.184698
 C         2.557552         0.159255         1.140389
 H         3.775382        -2.649868         1.131128
 H         4.711199        -2.252263        -0.437612
 H         5.128285        -1.382014         1.049661
 H        -0.615476        -0.580906         0.710188
 H        -0.532541         1.103294         0.222769
 H        -0.395913        -0.179163        -1.129089
 H         2.226223         0.777121        -2.169266
 H         1.699050         1.969180        -0.937462
 H         5.239441         0.995471        -0.409782
 H         2.342349         0.134972         2.230715
