19
Iteration:  4280charge 0 multiplicity 1
 C         4.281226        -1.759088         0.715859
 C         3.226432        -0.773891         0.328483
 O         2.025776        -1.331190        -0.417167
 C         1.332801         0.013669        -0.089974
 C        -0.164803        -0.053234        -0.036538
 C         2.221883         0.953550        -1.057534
 C         3.394654         0.744465        -0.068497
 O         4.662505         1.268638        -0.044107
 C         2.392759         0.220400         1.044858
 H         3.769036        -2.763200         0.845327
 H         4.929704        -1.985192        -0.195198
 H         4.838602        -1.489375         1.618539
 H        -0.493913        -0.785411         0.806874
 H        -0.524233         0.992966        -0.096663
 H        -0.619055        -0.521845        -0.929638
 H         2.500021         0.660738        -2.095908
 H         1.895811         2.025197        -1.139877
 H         4.806822         1.641963         0.871507
 H         2.396749         0.641099         2.110218
