19
Iteration:  2891
 C         4.162361        -1.745165         0.777873
 C         3.186136        -0.796427         0.221752
 O         2.055816        -1.243801        -0.563464
 C         1.392404         0.059198        -0.064332
 C        -0.069539        -0.082125         0.005212
 C         2.261532         0.991366        -0.917482
 C         3.409490         0.624854        -0.078374
 O         4.618835         1.216375        -0.063762
 C         2.346697         0.179604         1.099859
 H         3.821726        -2.688243         1.204598
 H         4.792243        -2.008960        -0.094894
 H         4.787698        -1.191686         1.585257
 H        -0.346497        -0.870938         0.794590
 H        -0.565506         0.913797         0.200244
 H        -0.403660        -0.530271        -0.910913
 H         2.361040         0.838876        -2.054585
 H         2.017903         2.071530        -0.802817
 H         4.594274         2.165999        -0.061074
 H         2.607481         0.524459         2.092203
