19
Iteration:  1006charge 0 multiplicity 1
 C         4.187115        -1.806946         0.645501
 C         3.228447        -0.820645         0.264144
 O         2.059034        -1.312059        -0.505972
 C         1.390884         0.055645        -0.139636
 C        -0.093828        -0.071807         0.001628
 C         2.295252         1.027836        -0.908796
 C         3.436717         0.649538        -0.011764
 O         4.595705         1.363924         0.007381
 C         2.370481         0.130769         1.061274
 H         3.617038        -2.552138         1.292541
 H         4.312412        -2.266506        -0.320133
 H         5.174180        -1.492472         0.880986
 H        -0.428503        -0.321514         1.044127
 H        -0.608469         0.966387        -0.269781
 H        -0.419793        -0.881600        -0.708404
 H         2.314646         0.931294        -1.998499
 H         2.083938         2.134837        -0.761883
 H         4.372773         2.280401         0.269500
 H         2.063294        -0.035393         2.057086
