19
Iteration:   597
 C         4.390595        -1.740354         0.513429
 C         3.196098        -0.910582         0.286218
 O         2.008387        -1.307905        -0.378740
 C         1.338511        -0.001558        -0.042873
 C        -0.141476         0.056478        -0.125308
 C         2.178337         1.062282        -0.985902
 C         3.423477         0.567527        -0.165984
 O         4.609468         1.260118         0.187326
 C         2.416303         0.144730         1.046169
 H         4.258297        -2.408943         1.344267
 H         4.673607        -2.305430        -0.395303
 H         5.179913        -1.004592         0.851976
 H        -0.602889        -0.199807         0.809127
 H        -0.522054         1.090652        -0.249039
 H        -0.386310        -0.585130        -0.981505
 H         2.098764         0.832371        -2.070473
 H         1.796688         2.011001        -0.649716
 H         4.459113         2.169722         0.451411
 H         2.269397         0.576869         2.105647
