19
Iteration:  1952
 C         4.381989        -1.788359         0.558926
 C         3.219345        -0.808605         0.358774
 O         1.950042        -1.311744        -0.326969
 C         1.358290        -0.000292        -0.032487
 C        -0.173847        -0.010167        -0.141164
 C         2.234285         1.065035        -1.072736
 C         3.282841         0.682480        -0.127781
 O         4.594774         1.154528         0.097966
 C         2.506901         0.274821         1.089700
 H         4.011346        -2.541180         1.152481
 H         4.630018        -2.321999        -0.343466
 H         5.282448        -1.305101         0.998547
 H        -0.582441        -0.881254         0.436460
 H        -0.644127         0.953307         0.009126
 H        -0.302689        -0.425680        -1.126803
 H         2.277062         0.669057        -2.069474
 H         2.084054         2.172066        -0.854312
 H         4.760969         2.090736         0.180722
 H         2.772423         0.686924         2.149007
