19
Iteration:   375
 C         4.325234        -1.667292         0.550653
 C         3.094579        -0.835396         0.315116
 O         1.995500        -1.330339        -0.454780
 C         1.407601         0.063844        -0.095880
 C        -0.058797         0.021655        -0.094918
 C         2.306224         1.000671        -0.914273
 C         3.372575         0.533983         0.031735
 O         4.567584         1.246351        -0.005826
 C         2.373564         0.150935         1.109701
 H         4.081373        -2.621337         1.213020
 H         4.486817        -1.996499        -0.472868
 H         5.187582        -1.014981         0.793028
 H        -0.266336        -0.897399         0.485673
 H        -0.533856         0.948707         0.207612
 H        -0.453849        -0.219823        -1.119530
 H         2.425510         0.774187        -1.985736
 H         2.187988         2.071960        -0.683421
 H         4.391845         2.068169         0.446053
 H         2.358840         0.567374         2.120522
