19
Iteration:  3578charge 0 multiplicity 1
 C         4.336866        -1.763359         0.660510
 C         3.256529        -0.776869         0.253596
 O         1.982272        -1.415658        -0.357434
 C         1.354291         0.001140        -0.169888
 C        -0.154015         0.026014        -0.114395
 C         2.193192         0.994135        -0.990058
 C         3.378402         0.679990        -0.052509
 O         4.640395         1.198904         0.074193
 C         2.430449         0.309162         1.079654
 H         4.005151        -2.442877         1.490676
 H         4.603594        -2.367392        -0.227173
 H         5.184104        -1.254651         1.012332
 H        -0.395778        -0.460669         0.849134
 H        -0.561761         1.038790        -0.185185
 H        -0.566146        -0.803102        -0.874459
 H         2.443063         0.730873        -2.021550
 H         1.842815         2.036473        -0.874270
 H         4.480383         2.140760        -0.147235
 H         2.185767         0.764785         1.969642
