19
Iteration:  1421
 C         4.300457        -1.806909         0.529533
 C         3.211814        -0.824115         0.231583
 O         1.974275        -1.244841        -0.344639
 C         1.343617        -0.063121         0.004848
 C        -0.100423        -0.030241        -0.190504
 C         2.221516         1.065156        -0.985011
 C         3.324682         0.640604        -0.078137
 O         4.643618         1.194203         0.102461
 C         2.464641         0.262746         1.103915
 H         4.078875        -2.537887         1.369622
 H         4.657774        -2.227999        -0.406914
 H         5.067836        -1.152832         1.065309
 H        -0.618836        -0.611711         0.587552
 H        -0.538306         0.954614        -0.094155
 H        -0.485493        -0.647316        -0.939199
 H         2.367617         0.751527        -2.024985
 H         1.937715         2.110122        -0.996855
 H         4.523436         2.139070         0.304344
 H         2.656833         0.662713         2.079325
