19
Iteration:  1591
 C         4.324568        -1.778887         0.621899
 C         3.235298        -0.808411         0.249216
 O         1.931963        -1.307940        -0.364917
 C         1.362952         0.019573        -0.055729
 C        -0.107555        -0.048992        -0.137457
 C         2.158725         1.046155        -1.023761
 C         3.324622         0.691889        -0.097328
 O         4.677835         1.142855         0.114133
 C         2.492028         0.241800         1.077936
 H         4.061548        -2.242550         1.564704
 H         4.655888        -2.310573        -0.359433
 H         5.277692        -1.207702         0.760697
 H        -0.484688        -0.383347         0.770912
 H        -0.608575         0.901751        -0.122553
 H        -0.444656        -0.536088        -1.007160
 H         2.277113         0.838628        -2.054178
 H         1.576748         2.020114        -0.915804
 H         4.749648         2.126623         0.202651
 H         2.425271         0.632023         2.019784
