19
Iteration:  1292charge 0 multiplicity 1
 C         4.233024        -1.737654         0.608895
 C         3.169709        -0.785421         0.368769
 O         2.086287        -1.248752        -0.473057
 C         1.372408        -0.050057        -0.042914
 C        -0.115210        -0.015289        -0.089821
 C         2.185161         1.004276        -1.009449
 C         3.375031         0.686933        -0.085021
 O         4.685831         1.152326         0.032813
 C         2.394077         0.210338         1.128104
 H         3.955268        -2.739799         0.987763
 H         4.832822        -1.845536        -0.302273
 H         5.052167        -1.215166         1.193365
 H        -0.483842        -1.001893         0.214037
 H        -0.667330         0.559316         0.623883
 H        -0.470261         0.405094        -1.070214
 H         2.113909         0.716673        -2.115057
 H         1.804017         1.980602        -0.762088
 H         4.694622         2.140369        -0.060589
 H         2.180460         0.345187         2.253182
