19
Iteration:   320
 C         4.119392        -1.820823         0.687831
 C         3.190653        -0.825357         0.179582
 O         2.133771        -1.202523        -0.540345
 C         1.380110        -0.008802        -0.037267
 C        -0.087440        -0.067293        -0.008500
 C         2.158377         1.070418        -0.947540
 C         3.397404         0.657698        -0.173406
 O         4.619824         1.244583         0.078616
 C         2.520279         0.149195         1.078036
 H         3.520061        -2.559032         1.418462
 H         4.744459        -2.246145        -0.048879
 H         4.760550        -1.191896         1.393753
 H        -0.384843        -0.840065         0.686712
 H        -0.487099         0.745189         0.479325
 H        -0.470510        -0.347210        -1.013278
 H         2.045239         0.890680        -2.010898
 H         1.944417         2.128011        -0.850974
 H         4.475766         2.185697         0.217416
 H         2.388365         0.265186         2.220975
