19
Iteration:  3565charge 0 multiplicity 1
 C         4.290324        -1.730419         0.628925
 C         3.139386        -0.809382         0.373156
 O         2.107367        -1.293855        -0.310543
 C         1.379117         0.004322        -0.083482
 C        -0.132539        -0.031013        -0.123681
 C         2.205013         1.023213        -1.113868
 C         3.300559         0.677315        -0.098352
 O         4.679080         1.182411         0.046587
 C         2.394206         0.203613         1.108763
 H         3.919013        -2.484778         1.341542
 H         4.584733        -2.275795        -0.275949
 H         5.183200        -1.215822         0.956283
 H        -0.653771        -0.352416         0.813868
 H        -0.518272         0.957664        -0.311999
 H        -0.512541        -0.564919        -1.108247
 H         2.185707         0.726193        -2.147629
 H         1.813205         2.031989        -1.005669
 H         4.723254         2.145292        -0.073296
 H         2.514276         0.323593         2.204331
