19
Iteration:   744charge 0 multiplicity 1
 C         4.355477        -1.667502         0.536626
 C         3.232729        -0.823979         0.225205
 O         2.051526        -1.387961        -0.340578
 C         1.367897        -0.048305        -0.167125
 C        -0.106894         0.090932        -0.072043
 C         2.253977         1.027148        -1.001483
 C         3.327996         0.628534        -0.024029
 O         4.574672         1.225355         0.072219
 C         2.347467         0.178095         1.086661
 H         4.032350        -2.588028         1.187187
 H         4.614137        -2.056032        -0.497205
 H         5.284730        -1.292708         0.949423
 H        -0.614670        -0.626887         0.628717
 H        -0.148046         1.118505         0.320830
 H        -0.597643        -0.086997        -1.004789
 H         2.279005         0.999164        -2.101319
 H         1.851036         2.050588        -0.726332
 H         4.423975         1.852698         0.804086
 H         2.243637         0.169490         2.185301
