19
Iteration:  1523
 C         4.152606        -1.924545         0.784239
 C         3.223015        -0.774072         0.220759
 O         2.074263        -1.351183        -0.465749
 C         1.407270        -0.006680        -0.167803
 C        -0.142955        -0.022485         0.007607
 C         2.229984         1.048007        -0.965700
 C         3.416198         0.677812        -0.113987
 O         4.583533         1.347172        -0.026842
 C         2.499528         0.229778         1.047211
 H         3.440094        -2.702272         1.252564
 H         4.871257        -2.303183        -0.089599
 H         4.966981        -1.424543         1.327030
 H        -0.443490        -0.828785         0.672643
 H        -0.565696         0.849372         0.470994
 H        -0.585497         0.104760        -1.010808
 H         2.295210         0.737461        -2.047521
 H         1.821758         2.034802        -0.797757
 H         4.474586         2.077152         0.612368
 H         2.508379         0.349701         2.192320
