19
Iteration:  1854
 C         4.209459        -1.874330         0.726748
 C         3.184369        -0.910683         0.258387
 O         1.982873        -1.347823        -0.372098
 C         1.425086         0.041893        -0.150861
 C        -0.090390        -0.037105        -0.026610
 C         2.157870         1.070291        -1.068549
 C         3.399605         0.729530        -0.131356
 O         4.637302         1.306910         0.076641
 C         2.505308         0.214560         0.955415
 H         3.728779        -2.692813         1.230675
 H         4.981630        -2.308609         0.045907
 H         4.826802        -1.126589         1.333267
 H        -0.281657        -0.872109         0.749484
 H        -0.356902         0.952004         0.452306
 H        -0.637811        -0.149301        -1.005503
 H         2.174000         0.883885        -2.126405
 H         1.750070         2.122771        -0.807009
 H         4.511142         2.204039         0.392678
 H         2.617230         0.391394         2.156546
