19
Iteration:   159charge 0 multiplicity 1
 C         4.117346        -1.820347         0.710970
 C         3.197116        -0.766806         0.149457
 O         1.996619        -1.291479        -0.520266
 C         1.390082        -0.023643        -0.059375
 C        -0.092233        -0.123330        -0.000891
 C         2.213592         1.086024        -1.014839
 C         3.448805         0.636514        -0.114616
 O         4.642867         1.334728         0.172402
 C         2.466167         0.219886         1.065853
 H         3.663674        -2.668891         1.309153
 H         4.810245        -2.234527        -0.134329
 H         4.878027        -1.224250         1.311714
 H        -0.439641        -1.059393         0.548355
 H        -0.580666         0.831857         0.465712
 H        -0.341191        -0.324028        -1.092015
 H         2.042315         1.036016        -2.152804
 H         2.021195         2.070397        -0.556201
 H         5.150087         1.480616        -0.650898
 H         2.403654         0.469069         2.139063
