19
Iteration:  4356
 C         4.241946        -1.768540         0.688553
 C         3.164242        -0.838003         0.330435
 O         2.039746        -1.309763        -0.432158
 C         1.427513        -0.074841        -0.060270
 C        -0.028420        -0.060211        -0.077669
 C         2.282737         1.050251        -1.008859
 C         3.346076         0.794511        -0.016071
 O         4.606649         1.275904        -0.069666
 C         2.327424         0.153490         1.114352
 H         4.107911        -2.351459         1.680702
 H         4.211193        -2.536170        -0.195966
 H         5.258130        -1.381131         0.829164
 H        -0.643913        -0.639789         0.706057
 H        -0.427955         0.967006         0.042471
 H        -0.338705        -0.326218        -1.122731
 H         2.426356         0.668636        -2.023160
 H         1.786512         2.036650        -1.111050
 H         4.595771         2.220250        -0.173575
 H         2.276755         0.366805         2.212394
