19
Iteration:  1392charge 0 multiplicity 1
 C         4.215464        -1.846710         0.610654
 C         3.199507        -0.893732         0.326417
 O         2.018375        -1.361798        -0.406215
 C         1.385093         0.017687        -0.107945
 C        -0.076227         0.068047        -0.126939
 C         2.179989         1.060537        -0.946288
 C         3.411052         0.633907        -0.109751
 O         4.614724         1.392346         0.030541
 C         2.502771         0.198111         1.063635
 H         4.002337        -2.639648         1.350901
 H         4.397113        -2.442330        -0.327207
 H         5.078506        -1.281937         0.980203
 H        -0.325340        -0.611486         0.741945
 H        -0.733671         0.850993        -0.170962
 H        -0.528010        -0.740966        -0.778315
 H         2.192614         0.856594        -2.084425
 H         1.871691         2.046372        -0.704907
 H         4.543710         1.857221         0.862420
 H         2.295304         0.331551         2.078615
