19
Iteration:  3947
 C         4.276170        -1.853267         0.666251
 C         3.243496        -0.837212         0.300926
 O         2.054925        -1.314430        -0.324075
 C         1.385590        -0.032774        -0.154875
 C        -0.084950        -0.002742        -0.054890
 C         2.174299         0.974849        -1.049058
 C         3.393828         0.649507        -0.149727
 O         4.589202         1.286942         0.113266
 C         2.426379         0.333877         1.007040
 H         3.897810        -2.561967         1.426744
 H         4.507753        -2.516023        -0.164564
 H         5.203745        -1.334955         0.936770
 H        -0.440500        -0.471204         0.854054
 H        -0.446313         0.938197        -0.355424
 H        -0.635704        -0.650352        -0.861247
 H         2.028866         0.914925        -2.148158
 H         1.710990         1.970511        -0.828267
 H         4.464257         2.228029        -0.004987
 H         2.362072         0.697293         2.193659
