19
Iteration:  2919
 C         4.160782        -1.862235         0.859452
 C         3.148222        -0.846313         0.279765
 O         2.068933        -1.297093        -0.481118
 C         1.411097         0.017500        -0.210306
 C        -0.086779        -0.065951        -0.008453
 C         2.187587         1.089010        -0.950955
 C         3.376097         0.802431        -0.048617
 O         4.666037         1.283389        -0.141529
 C         2.434930         0.142568         1.060250
 H         3.817307        -2.789871         1.341413
 H         4.702723        -2.199768        -0.052766
 H         4.893034        -1.377581         1.409124
 H        -0.261115        -0.909786         0.603535
 H        -0.514092         0.812090         0.484802
 H        -0.667685        -0.456673        -0.937019
 H         2.453230         1.049121        -1.964680
 H         1.674736         2.039689        -0.695594
 H         5.023590         2.027010         0.314189
 H         2.268453         0.267891         2.132077
