19
Iteration:  3014charge 0 multiplicity 1
 C         4.337237        -1.735080         0.584832
 C         3.144448        -0.782138         0.396145
 O         2.092876        -1.353001        -0.423309
 C         1.420840         0.043666        -0.078643
 C        -0.091489         0.057140        -0.135721
 C         2.208827         0.948444        -1.043296
 C         3.288430         0.642560        -0.073998
 O         4.583096         1.106569         0.028329
 C         2.409366         0.288037         1.166561
 H         4.361898        -2.586047         1.319441
 H         4.538760        -2.130830        -0.456671
 H         5.112438        -0.995972         0.781886
 H        -0.544097        -0.368779         0.734719
 H        -0.246174         1.197315         0.083167
 H        -0.505171        -0.420711        -0.914091
 H         2.318250         0.577292        -2.097057
 H         1.725600         1.936242        -0.886198
 H         4.556799         2.018200         0.367153
 H         1.986876         0.717742         2.058087
