19
Iteration:  3227
 C         4.246663        -1.795651         0.733644
 C         3.184679        -0.816994         0.311395
 O         2.055145        -1.292970        -0.393600
 C         1.387531         0.053620        -0.069314
 C        -0.151572        -0.043886        -0.088851
 C         2.227763         1.012250        -1.017666
 C         3.405496         0.582333        -0.145252
 O         4.644773         1.232195         0.038403
 C         2.405311         0.289946         1.084341
 H         3.787555        -2.601084         1.308962
 H         4.450222        -2.202232        -0.282816
 H         5.244073        -1.357640         1.078692
 H        -0.629632        -0.715884         0.668745
 H        -0.643920         0.856756        -0.129814
 H        -0.217432        -0.584694        -1.109410
 H         2.231490         0.924278        -2.112420
 H         1.707916         1.895566        -0.629148
 H         4.609206         2.118983        -0.347613
 H         2.526086         0.820330         2.004146
