19
Iteration:  1542
 C         4.163147        -1.937701         0.685419
 C         3.148918        -0.890419         0.374277
 O         2.066575        -1.264384        -0.478110
 C         1.430874         0.006360        -0.152708
 C         0.006462        -0.035760         0.015518
 C         2.274285         1.022075        -1.030489
 C         3.326135         0.679891        -0.016465
 O         4.613536         1.408566        -0.070829
 C         2.383940         0.171557         1.054286
 H         3.604167        -2.543696         1.412151
 H         4.499883        -2.303191        -0.225165
 H         5.091994        -1.557927         1.172813
 H        -0.247139        -0.692254         0.875564
 H        -0.477619         0.835438         0.423349
 H        -0.551739        -0.231207        -0.936408
 H         2.414165         0.768657        -2.130441
 H         1.976748         2.028491        -0.938537
 H         4.600300         2.295366         0.305289
 H         2.136861         0.466442         2.117758
