19
Iteration:  1771
 C         4.327847        -1.648680         0.598914
 C         3.169291        -0.883324         0.276213
 O         1.965718        -1.328662        -0.368185
 C         1.358879         0.005864        -0.060983
 C        -0.128505         0.004077        -0.168694
 C         2.182631         1.064311        -0.959903
 C         3.340568         0.535914        -0.131203
 O         4.653949         1.150019         0.087224
 C         2.514916         0.275001         1.072110
 H         4.152671        -2.113226         1.635425
 H         4.541829        -2.324122        -0.223062
 H         5.089087        -0.973892         0.960104
 H        -0.496553        -0.647301         0.673446
 H        -0.535070         0.999263        -0.117621
 H        -0.376368        -0.590577        -1.049214
 H         2.261142         1.100856        -2.099434
 H         1.947043         2.063484        -0.623495
 H         4.524928         2.108232         0.209384
 H         2.518634         0.550123         2.072294
