19
Iteration:  1665
 C         4.180750        -1.775555         0.696886
 C         3.128981        -0.803596         0.309423
 O         2.061699        -1.334151        -0.432542
 C         1.410008        -0.011666        -0.099698
 C        -0.045492         0.006473        -0.021926
 C         2.211946         0.986045        -1.031270
 C         3.386141         0.627896        -0.140471
 O         4.638978         1.297696         0.015527
 C         2.479457         0.215652         1.100472
 H         3.547305        -2.631022         0.984487
 H         4.879413        -2.113077        -0.107014
 H         4.889923        -1.407113         1.417139
 H        -0.508899        -0.864885         0.468955
 H        -0.538708         0.848421         0.430381
 H        -0.454978         0.080938        -1.100341
 H         2.049651         0.622728        -2.072537
 H         1.835543         1.969327        -0.834225
 H         4.445152         2.248192         0.102435
 H         2.361906         0.448226         2.080295
