19
Iteration:  2076charge 0 multiplicity 1
 C         4.171885        -1.850540         0.747503
 C         3.125021        -0.837863         0.404650
 O         2.084332        -1.259474        -0.516062
 C         1.419689         0.062009        -0.105307
 C        -0.037115        -0.110691         0.024403
 C         2.190753         1.117646        -1.015101
 C         3.334178         0.674863        -0.095951
 O         4.683979         1.227782        -0.119038
 C         2.409353         0.229373         1.093191
 H         3.739356        -2.643387         1.396759
 H         4.683011        -2.089113        -0.173330
 H         4.806673        -1.481580         1.517243
 H        -0.303729        -1.038489         0.633905
 H        -0.434649         0.870730         0.348221
 H        -0.315873        -0.221210        -1.025984
 H         2.168279         0.706313        -2.070736
 H         1.992690         2.164290        -0.763433
 H         4.731843         2.167667         0.020418
 H         2.009877         0.219647         2.088708
