19
Iteration:   742charge 0 multiplicity 1
 C         4.353752        -1.680654         0.535447
 C         3.230777        -0.808637         0.255408
 O         2.051374        -1.389323        -0.344180
 C         1.398952        -0.057181        -0.181519
 C        -0.101140         0.095903        -0.074837
 C         2.242746         1.040697        -0.995166
 C         3.321881         0.625391        -0.031013
 O         4.554836         1.222143         0.059595
 C         2.352428         0.166388         1.091176
 H         4.042673        -2.505024         1.127418
 H         4.604725        -2.050310        -0.496719
 H         5.263133        -1.308262         1.001980
 H        -0.612433        -0.590003         0.615217
 H        -0.129041         1.045175         0.388772
 H        -0.657920        -0.041321        -1.012606
 H         2.358531         0.971804        -2.067441
 H         1.898893         2.052942        -0.703525
 H         4.420899         1.860805         0.807304
 H         2.249103         0.212546         2.156152
