19
Iteration:  2432
 C         4.251861        -1.772514         0.697110
 C         3.155038        -0.806775         0.348333
 O         1.989763        -1.339221        -0.427594
 C         1.355201         0.012413        -0.125826
 C        -0.076196         0.009496        -0.045322
 C         2.210106         1.047147        -1.005124
 C         3.412896         0.646043        -0.057007
 O         4.711872         1.232919        -0.079454
 C         2.364660         0.193578         1.110822
 H         3.859976        -2.647084         1.233604
 H         4.737301        -2.208514        -0.191536
 H         4.990750        -1.268729         1.284928
 H        -0.316799        -0.862259         0.545996
 H        -0.606712         0.834533         0.306261
 H        -0.378329        -0.251529        -1.069409
 H         2.276692         0.991554        -2.124230
 H         1.919791         2.120359        -0.761604
 H         4.493137         2.160449         0.114099
 H         2.447450         0.439034         2.154956
