19
Iteration:   294charge 0 multiplicity 1
 C         4.242625        -1.931210         0.667377
 C         3.149116        -0.903110         0.242611
 O         1.956924        -1.283178        -0.537052
 C         1.381309         0.029370        -0.192145
 C        -0.065414        -0.064848         0.049422
 C         2.323800         1.030920        -0.956450
 C         3.396716         0.689462        -0.001677
 O         4.629537         1.428982        -0.026282
 C         2.417720         0.217400         1.057349
 H         3.692375        -2.716128         1.147646
 H         4.881284        -2.549103        -0.040417
 H         4.787303        -1.427277         1.442792
 H        -0.076174        -0.911860         0.776763
 H        -0.708362         0.766069         0.513581
 H        -0.492422        -0.464188        -0.945250
 H         2.450059         1.126472        -2.044403
 H         1.883493         1.990024        -0.577075
 H         4.684769         2.018971         0.716869
 H         2.095923         0.587995         2.069269
