19
Iteration:   799
 C         4.244409        -1.811534         0.519778
 C         3.215939        -0.784925         0.283521
 O         2.068323        -1.312737        -0.460184
 C         1.383084         0.055960        -0.100019
 C        -0.086810        -0.147030        -0.030897
 C         2.266639         1.113178        -0.868084
 C         3.369406         0.687833        -0.014202
 O         4.631864         1.212400         0.045456
 C         2.345680         0.261996         1.038449
 H         3.839073        -2.519774         1.370676
 H         4.347675        -2.571610        -0.291600
 H         5.221047        -1.368726         0.695528
 H        -0.280698        -0.460016         1.027699
 H        -0.678693         0.700988        -0.446796
 H        -0.279082        -0.904484        -0.762010
 H         2.295675         0.980690        -1.966329
 H         1.907459         2.173925        -0.727047
 H         4.472752         2.143308         0.215351
 H         1.829095         0.489631         2.037516
