19
Iteration:    93
 C         4.104032        -1.823948         0.559094
 C         3.228525        -0.782307         0.190155
 O         2.116013        -1.339451        -0.503405
 C         1.411607        -0.069164        -0.139368
 C        -0.129711         0.058131        -0.052913
 C         2.148267         0.906907        -1.014581
 C         3.357669         0.711163         0.003264
 O         4.566706         1.435064         0.182891
 C         2.530080         0.186118         1.172081
 H         3.734502        -2.711036         1.159942
 H         4.615991        -2.234907        -0.378158
 H         5.001614        -1.382704         1.173170
 H        -0.474109        -0.601193         0.788245
 H        -0.194826         1.165412         0.228113
 H        -0.851486        -0.187060        -0.948935
 H         2.323719         0.476225        -2.043037
 H         1.741444         1.944250        -0.945989
 H         5.282087         0.990517        -0.325342
 H         2.819818         0.341148         2.269958
