19
Iteration:  3519
 C         4.278353        -1.798307         0.724620
 C         3.202575        -0.765396         0.372829
 O         1.974671        -1.312631        -0.307642
 C         1.358127         0.027691        -0.125869
 C        -0.160288        -0.077429        -0.139474
 C         2.293133         1.069987        -1.014479
 C         3.388062         0.639445        -0.106205
 O         4.623084         1.204458        -0.072917
 C         2.456270         0.216621         1.043883
 H         4.139940        -2.679342         1.307685
 H         4.752081        -1.996115        -0.230469
 H         5.135670        -1.160473         1.180283
 H        -0.505162        -0.927078         0.493906
 H        -0.681680         0.848578         0.236010
 H        -0.530289        -0.148516        -1.171246
 H         2.352760         0.977714        -2.090024
 H         2.033656         2.098271        -0.801392
 H         4.571297         2.053195         0.454785
 H         2.103883         0.471197         2.103807
