19
Iteration:  3020
 C         4.334103        -1.720130         0.601430
 C         3.177125        -0.850689         0.364251
 O         2.064633        -1.284642        -0.417025
 C         1.400594        -0.033736        -0.035425
 C        -0.110008         0.072879        -0.126654
 C         2.219439         0.963085        -1.040784
 C         3.305526         0.693557        -0.036973
 O         4.571478         1.084477         0.030364
 C         2.434567         0.287431         1.071866
 H         4.254429        -2.466833         1.367755
 H         4.721700        -2.123180        -0.320054
 H         5.157964        -0.997360         0.903537
 H        -0.577772        -0.397332         0.802983
 H        -0.502792         1.060257        -0.068801
 H        -0.530857        -0.473550        -1.104532
 H         2.211594         0.587460        -2.093785
 H         1.674850         1.905430        -0.906846
 H         4.737607         2.008553         0.383058
 H         2.270624         0.705159         2.111599
