19
Iteration:   341charge 0 multiplicity 1
 C         4.289468        -1.791341         0.715491
 C         3.286990        -0.762313         0.242437
 O         2.017189        -1.302273        -0.593570
 C         1.348449        -0.047426        -0.115897
 C        -0.115534        -0.040494        -0.020102
 C         2.120302         1.063282        -0.901936
 C         3.354469         0.728361         0.000543
 O         4.703526         1.179107         0.053585
 C         2.402221         0.209340         1.023421
 H         3.766290        -2.616032         1.291971
 H         4.591643        -2.198847        -0.234705
 H         5.212637        -1.540273         1.299730
 H        -0.560871        -0.765355         0.642219
 H        -0.397519         0.877687         0.407762
 H        -0.501115        -0.162148        -1.098566
 H         2.068366         0.925933        -1.949498
 H         1.660954         2.040189        -0.689441
 H         4.667928         2.150210        -0.039141
 H         2.459561         0.506408         2.135649
