19
Iteration:   355charge 0 multiplicity 1
 C         4.356546        -1.807321         0.630280
 C         3.113261        -0.867498         0.323960
 O         2.016380        -1.301943        -0.469489
 C         1.428877        -0.035486        -0.150014
 C        -0.117539        -0.023258        -0.062516
 C         2.192953         1.150508        -0.948119
 C         3.338960         0.750071        -0.039258
 O         4.658007         1.207208         0.004837
 C         2.382467         0.153252         1.104394
 H         4.057504        -2.721813         1.323745
 H         4.839409        -2.328591        -0.243743
 H         5.065643        -1.106586         1.103759
 H        -0.357160        -0.891941         0.574552
 H        -0.438829         0.983304         0.308024
 H        -0.674737        -0.108790        -0.948329
 H         2.467712         0.969251        -2.029608
 H         1.850269         2.141100        -0.682779
 H         4.741521         2.166423         0.088088
 H         2.042771         0.130531         2.092103
