19
Iteration:   357charge 0 multiplicity 1
 C         4.347647        -1.796341         0.615569
 C         3.109106        -0.882052         0.329469
 O         2.022658        -1.302310        -0.454749
 C         1.434011        -0.010711        -0.154933
 C        -0.114279        -0.027170        -0.061611
 C         2.212061         1.146530        -0.955499
 C         3.340467         0.736039        -0.036462
 O         4.647932         1.210687        -0.000995
 C         2.375352         0.142957         1.112838
 H         4.116231        -2.660406         1.284366
 H         4.851388        -2.362259        -0.241940
 H         5.010217        -1.084326         1.092666
 H        -0.364005        -0.891788         0.584395
 H        -0.462294         1.000639         0.303481
 H        -0.653367        -0.089147        -0.971222
 H         2.488800         0.982830        -2.054703
 H         1.816740         2.135062        -0.661858
 H         4.707449         2.157598         0.116514
 H         2.037881         0.126571         2.104195
