19
Iteration:  3845
 C         4.243429        -1.779935         0.808109
 C         3.175900        -0.891431         0.335788
 O         1.960545        -1.257490        -0.469732
 C         1.367745         0.043557        -0.061261
 C        -0.066974        -0.107929        -0.095991
 C         2.197029         1.022025        -1.016009
 C         3.335255         0.759078        -0.081765
 O         4.679249         1.246286        -0.089465
 C         2.522218         0.191669         1.096164
 H         3.875731        -2.543553         1.461948
 H         4.949566        -2.151182         0.081969
 H         4.879461        -1.147381         1.388993
 H        -0.498739        -1.030817         0.425574
 H        -0.829457         0.568271         0.484639
 H        -0.327855         0.003736        -1.105576
 H         2.411372         0.653143        -2.011382
 H         1.787883         1.979165        -0.894216
 H         4.619440         2.215165        -0.314168
 H         2.333527         0.352265         2.063668
