19
Iteration:  4069
 C         4.353163        -1.764111         0.653937
 C         3.125891        -0.861784         0.363329
 O         1.991989        -1.267340        -0.409058
 C         1.417436         0.012925        -0.122118
 C        -0.066635         0.022534        -0.032379
 C         2.298864         0.870356        -1.130493
 C         3.329299         0.725504         0.039778
 O         4.554570         1.281880        -0.025602
 C         2.420553         0.179780         1.105659
 H         4.205371        -2.740597         1.051726
 H         4.962235        -1.988275        -0.207108
 H         4.951686        -1.268721         1.490890
 H        -0.530543        -0.797029         0.440896
 H        -0.235186         1.046668         0.396433
 H        -0.642665         0.086610        -1.001478
 H         2.390145         0.147300        -1.940200
 H         1.915027         1.827209        -1.501202
 H         4.425793         2.267952         0.101533
 H         2.000114         0.526662         2.051995
