19
Iteration:   673charge 0 multiplicity 1
 C         4.119174        -1.892194         0.708524
 C         3.197628        -0.880453         0.207192
 O         2.048778        -1.257434        -0.500739
 C         1.401267         0.043846        -0.090482
 C        -0.023315        -0.199290        -0.011394
 C         2.161158         1.149142        -0.931296
 C         3.356292         0.701394        -0.084209
 O         4.624573         1.250536         0.034584
 C         2.524632         0.294068         1.029552
 H         3.654939        -2.690275         1.197398
 H         4.880458        -2.206190         0.040020
 H         4.656792        -1.324503         1.472729
 H        -0.309688        -1.195366         0.264942
 H        -0.373485         0.548294         0.729649
 H        -0.411287        -0.023458        -1.052941
 H         2.190237         1.153323        -2.040860
 H         1.839824         2.127667        -0.629869
 H         4.622623         2.215148        -0.130409
 H         2.367843         0.470348         2.126500
