19
Iteration:   245
 C         4.323143        -1.831044         0.541842
 C         3.202493        -0.883651         0.172050
 O         2.001595        -1.279671        -0.387172
 C         1.395060        -0.010416        -0.054078
 C        -0.076927         0.002687        -0.123707
 C         2.181191         0.981595        -0.943791
 C         3.344728         0.712592        -0.012808
 O         4.555988         1.345188         0.099081
 C         2.451000         0.213476         1.078596
 H         3.917097        -2.755639         1.068769
 H         4.705973        -2.367484        -0.285014
 H         5.079349        -1.164120         1.070955
 H        -0.697177        -0.480512         0.645078
 H        -0.359950         1.064239         0.067579
 H        -0.398670        -0.120276        -1.149241
 H         2.337213         0.454320        -1.938286
 H         1.832047         2.004300        -1.156777
 H         5.150459         0.944975         0.790480
 H         2.390378         0.718381         2.060302
