19
Iteration:  4164charge 0 multiplicity 1
 C         4.217603        -1.729216         0.751317
 C         3.144714        -0.800625         0.393579
 O         2.016798        -1.310632        -0.519305
 C         1.430044         0.007797        -0.185657
 C        -0.108023        -0.158455        -0.022425
 C         2.251995         1.070357        -0.978616
 C         3.383950         0.726186        -0.001942
 O         4.770734         1.250405        -0.134583
 C         2.289431         0.223643         1.120784
 H         4.062889        -2.373691         1.623678
 H         4.168598        -2.497064        -0.055532
 H         5.230976        -1.388726         0.905772
 H        -0.354292        -0.790103         0.797067
 H        -0.703083         0.732738         0.005613
 H        -0.624632        -0.742612        -0.824457
 H         2.496490         0.942948        -2.053451
 H         1.840379         2.012779        -0.666863
 H         4.820981         2.229811         0.003414
 H         1.882340         0.327651         2.252952
