19
Iteration:  2590charge 0 multiplicity 1
 C         4.255482        -1.856855         0.776724
 C         3.161254        -0.790257         0.196085
 O         1.906204        -1.344612        -0.434784
 C         1.375628         0.073976        -0.143727
 C        -0.093036        -0.091075        -0.024424
 C         2.106610         1.063610        -0.957500
 C         3.406787         0.684297        -0.144847
 O         4.684075         1.232722         0.071981
 C         2.572363         0.267085         0.989908
 H         3.965882        -2.248714         1.736534
 H         4.491626        -2.642197         0.082372
 H         5.194028        -1.196220         0.861126
 H        -0.322043        -1.015549         0.479919
 H        -0.611543         0.856377         0.338349
 H        -0.224063        -0.197336        -1.125314
 H         2.274310         0.822533        -2.018569
 H         1.901656         2.129117        -0.734985
 H         4.636266         2.151666         0.279409
 H         2.555826         0.481920         2.054424
