19
Iteration:  3045
 C         4.266569        -1.680555         0.723471
 C         3.208138        -0.814451         0.218404
 O         1.891208        -1.352497        -0.394438
 C         1.350473         0.058434        -0.051159
 C        -0.158277        -0.067090        -0.144508
 C         2.208361         1.062513        -1.001233
 C         3.445270         0.637778        -0.122131
 O         4.755687         1.194794        -0.000672
 C         2.471805         0.193065         1.113298
 H         3.940958        -2.450877         1.444716
 H         4.882412        -2.054827        -0.110742
 H         5.051940        -1.044995         1.231708
 H        -0.415936        -0.540280         0.843752
 H        -0.778868         0.892765        -0.001510
 H        -0.554182        -0.539995        -1.054363
 H         2.082236         0.741162        -2.142954
 H         1.742913         2.075112        -0.781438
 H         4.641425         2.113472         0.316842
 H         2.283961         0.213561         2.196657
