19
Iteration:   403charge 0 multiplicity 1
 C         4.387894        -1.826783         0.502498
 C         3.182852        -0.801343         0.250779
 O         2.054766        -1.298294        -0.316298
 C         1.381643         0.007591        -0.086845
 C        -0.170977         0.056224        -0.119751
 C         2.089384         0.974567        -1.091853
 C         3.335783         0.718759         0.016842
 O         4.674456         1.227242         0.152370
 C         2.442662         0.161898         1.080089
 H         4.106314        -2.598201         1.083583
 H         4.638562        -2.304220        -0.482098
 H         5.228832        -1.204495         0.869094
 H        -0.592192        -0.723508         0.477165
 H        -0.552726         1.073545        -0.053008
 H        -0.454286        -0.199672        -1.182575
 H         2.225578         0.584436        -2.099486
 H         1.640611         1.991792        -0.949265
 H         4.606591         2.079188         0.621818
 H         2.427921         0.507911         2.184944
