19
Iteration:  1624charge 0 multiplicity 1
 C         4.349988        -1.635280         0.651882
 C         3.141041        -0.853335         0.372006
 O         2.050410        -1.317131        -0.406444
 C         1.379702         0.046907        -0.056238
 C        -0.184366         0.038007        -0.166722
 C         2.260393         1.032102        -0.990057
 C         3.345864         0.614868        -0.050239
 O         4.618894         1.134089        -0.082567
 C         2.396695         0.155836         1.139932
 H         4.250005        -2.508736         1.205192
 H         4.491160        -2.172472        -0.347231
 H         5.159102        -0.890233         0.935109
 H        -0.445955        -0.579711         0.634416
 H        -0.486862         1.061176         0.025463
 H        -0.638078        -0.377670        -0.997314
 H         2.525299         0.838937        -1.973948
 H         1.912325         2.063605        -0.738487
 H         4.692367         1.801534         0.604635
 H         2.289386         0.458772         2.126104
