19
Iteration:  3741charge 0 multiplicity 1
 C         4.360073        -1.734408         0.706304
 C         3.148481        -0.899474         0.407096
 O         1.979989        -1.337611        -0.413928
 C         1.451260         0.006011        -0.180552
 C        -0.137893         0.032142        -0.110348
 C         2.228491         1.004033        -1.005532
 C         3.317681         0.668070        -0.065576
 O         4.635981         1.229649        -0.033968
 C         2.433971         0.234538         1.069069
 H         4.355832        -2.534230         1.512523
 H         4.657326        -2.144191        -0.299398
 H         5.088025        -1.039092         1.077098
 H        -0.437912        -0.516976         0.748314
 H        -0.688209         0.935958         0.008563
 H        -0.700499        -0.667577        -0.839738
 H         2.258351         0.683452        -2.055687
 H         1.678200         1.965160        -0.888918
 H         4.564539         2.104191         0.442847
 H         2.476184         0.767664         2.070221
