19
Iteration:  3194charge 0 multiplicity 1
 C         4.313304        -1.644313         0.653432
 C         3.169277        -0.817702         0.359450
 O         1.947295        -1.309814        -0.364244
 C         1.424745         0.041063        -0.109236
 C        -0.085380         0.032416        -0.112421
 C         2.283468         0.952518        -1.020443
 C         3.334960         0.710062        -0.013098
 O         4.654496         1.142345        -0.040717
 C         2.358895         0.173199         1.116547
 H         4.290919        -2.507907         1.328678
 H         4.398170        -2.251677        -0.253453
 H         5.338670        -1.122190         0.809166
 H        -0.656260        -0.482633         0.673625
 H        -0.604914         0.876538        -0.361329
 H        -0.423121        -0.659337        -0.992583
 H         2.593275         0.770588        -2.045671
 H         1.684416         1.858296        -0.993882
 H         4.672100         2.080345         0.084237
 H         2.216956         0.312358         2.204782
