19
Iteration:  3512
 C         4.310588        -1.735301         0.764108
 C         3.149410        -0.843409         0.383365
 O         1.969536        -1.281540        -0.347606
 C         1.390401        -0.051851        -0.137442
 C        -0.130595        -0.040212        -0.104265
 C         2.246944         1.057574        -1.005625
 C         3.356316         0.652148        -0.165973
 O         4.662544         1.218683        -0.041220
 C         2.465967         0.271729         1.027225
 H         3.845751        -2.657733         1.217133
 H         4.687714        -2.114944        -0.228957
 H         5.206095        -1.400776         1.217840
 H        -0.488671        -0.972522         0.413533
 H        -0.614465         0.792000         0.353338
 H        -0.446053        -0.090804        -1.270525
 H         2.313237         0.819322        -2.081329
 H         1.948370         2.062542        -0.635514
 H         4.406890         2.016215         0.436959
 H         2.292570         0.387833         2.119569
