19
Iteration:  3854
 C         4.328869        -1.760044         0.828887
 C         3.219340        -0.826816         0.296047
 O         1.941494        -1.254656        -0.433909
 C         1.438964         0.046418        -0.049705
 C        -0.111810        -0.076398        -0.074348
 C         2.102689         0.980378        -1.015394
 C         3.387129         0.728623        -0.134257
 O         4.684563         1.204735        -0.058417
 C         2.430926         0.173222         1.080063
 H         3.791181        -2.554935         1.300892
 H         4.935670        -2.181241         0.028011
 H         4.944027        -1.149551         1.559454
 H        -0.345644        -1.115251         0.078280
 H        -0.662030         0.837975         0.332126
 H        -0.281075         0.043432        -1.130464
 H         2.069172         0.797270        -2.070110
 H         1.702974         1.986698        -0.921555
 H         4.737478         2.190015        -0.105273
 H         2.270971         0.321144         2.089043
