19
Iteration:  3997charge 0 multiplicity 1
 C         4.240719        -1.734002         0.803270
 C         3.163723        -0.768212         0.314453
 O         2.046644        -1.231004        -0.527550
 C         1.304253         0.078203        -0.096173
 C        -0.138683        -0.165524        -0.107257
 C         2.222703         0.967657        -0.910004
 C         3.415638         0.642360        -0.031816
 O         4.649727         1.231528        -0.153909
 C         2.458237         0.238250         1.140492
 H         3.854372        -2.392941         1.627775
 H         4.517786        -2.512769        -0.016193
 H         5.162304        -1.168802         1.170787
 H        -0.366580        -1.051686         0.568413
 H        -0.610067         0.859198         0.067081
 H        -0.547403        -0.471285        -1.035969
 H         2.347265         0.711637        -1.991719
 H         2.102576         2.092202        -0.929473
 H         4.801391         2.091483         0.345403
 H         2.328301         0.297065         2.191649
