19
Iteration:    79
 C         4.333588        -1.840884         0.546194
 C         3.205535        -0.848663         0.275992
 O         1.970680        -1.324107        -0.408493
 C         1.389156        -0.021608        -0.077721
 C        -0.115347         0.044400        -0.078125
 C         2.169721         1.015187        -1.036069
 C         3.371180         0.719085        -0.044631
 O         4.572958         1.391009         0.179242
 C         2.513349         0.152564         1.085824
 H         3.836780        -2.636552         1.156111
 H         4.641320        -2.288194        -0.348972
 H         5.178047        -1.380319         1.144966
 H        -0.631934        -0.671564         0.560409
 H        -0.521741         0.991582         0.095909
 H        -0.323713        -0.209423        -1.168395
 H         2.227175         0.815776        -2.112246
 H         1.737493         2.038054        -0.924682
 H         5.237034         1.040713        -0.454870
 H         2.243577         0.160924         2.132429
