19
Iteration:  3466charge 0 multiplicity 1
 C         4.234530        -1.816462         0.816631
 C         3.224735        -0.745664         0.334104
 O         1.990430        -1.348358        -0.556282
 C         1.350332        -0.009077        -0.193932
 C        -0.071381        -0.021039         0.055679
 C         2.263659         0.970120        -1.114176
 C         3.413552         0.665108        -0.051340
 O         4.620947         1.278481        -0.012679
 C         2.372725         0.242671         1.050134
 H         3.642811        -2.495334         1.390218
 H         4.868306        -2.322529         0.088156
 H         5.038441        -1.348448         1.450172
 H        -0.455716        -0.793448         0.803269
 H        -0.174451         0.930797         0.664920
 H        -0.740349         0.211690        -0.907696
 H         2.472602         0.616886        -2.113297
 H         1.816232         1.954331        -0.971521
 H         4.427346         2.245220         0.178975
 H         2.595270         0.251582         2.201105
