19
Iteration:  1862
 C         4.202270        -1.840112         0.759322
 C         3.112264        -0.923245         0.286840
 O         1.992917        -1.311017        -0.454989
 C         1.398087        -0.060798        -0.118917
 C        -0.043315        -0.019376         0.018247
 C         2.115547         1.078512        -1.030714
 C         3.391404         0.741238        -0.195838
 O         4.695785         1.321955         0.079609
 C         2.542309         0.202658         0.940820
 H         3.854584        -2.641306         1.349956
 H         4.905962        -2.320130         0.080174
 H         4.730962        -1.330814         1.571004
 H        -0.470591        -0.788642         0.547516
 H        -0.443846         0.929403         0.396327
 H        -0.569619        -0.242565        -0.960665
 H         2.229901         0.851040        -2.097092
 H         1.783032         2.127357        -0.812646
 H         4.425202         2.176035         0.401815
 H         2.646737         0.479987         2.063281
