19
Iteration:  4937charge 0 multiplicity 1
 C         4.212803        -1.815793         0.535062
 C         3.146503        -0.847036         0.273499
 O         1.961743        -1.280164        -0.309124
 C         1.432658         0.036182        -0.035163
 C        -0.062800        -0.172521        -0.150500
 C         2.210921         1.085361        -0.983576
 C         3.410514         0.619366        -0.038272
 O         4.627567         1.288575         0.112999
 C         2.413329         0.376015         1.069620
 H         3.963002        -2.621978         1.184153
 H         4.528446        -2.384798        -0.458353
 H         5.248897        -1.319300         0.788112
 H        -0.615280        -0.805724         0.532574
 H        -0.567841         0.761860         0.103996
 H        -0.555990        -0.351202        -1.129131
 H         2.371254         0.725156        -2.027415
 H         2.058381         2.202244        -0.980850
 H         5.325463         1.287166        -0.619761
 H         2.373133         0.563298         2.170954
