19
Iteration:  2859charge 0 multiplicity 1
 C         4.364405        -1.848046         0.656527
 C         3.212350        -0.834564         0.268235
 O         1.946376        -1.351356        -0.343447
 C         1.371099        -0.040329        -0.101243
 C        -0.083965        -0.018396        -0.081345
 C         2.142493         1.066932        -1.033397
 C         3.365398         0.746672        -0.120920
 O         4.685010         1.206619         0.105029
 C         2.354524         0.276423         1.018981
 H         4.029687        -2.808939         1.078199
 H         4.862793        -2.009741        -0.315649
 H         5.171138        -1.334116         1.345243
 H        -0.479833        -0.585651         0.860232
 H        -0.455441         1.117087        -0.077576
 H        -0.409902        -0.315742        -1.058526
 H         2.199704         0.852544        -2.133181
 H         1.790838         2.071579        -0.789903
 H         4.773564         2.186768         0.010928
 H         2.427374         0.514078         2.076491
