19
Iteration:  1262charge 0 multiplicity 1
 C         4.319702        -1.767751         0.531360
 C         3.158697        -0.808950         0.362979
 O         2.011063        -1.307988        -0.387768
 C         1.399612        -0.003327        -0.129493
 C        -0.142463         0.033577        -0.148663
 C         2.364041         1.049228        -0.955949
 C         3.296862         0.678826         0.092718
 O         4.595747         1.196395        -0.085256
 C         2.366922         0.140234         1.201743
 H         4.097569        -2.625914         1.041246
 H         4.857577        -1.863061        -0.416661
 H         4.997603        -1.177712         1.080582
 H        -0.370538        -0.878530         0.463921
 H        -0.480076         0.902433         0.393937
 H        -0.484671        -0.132732        -1.203611
 H         2.574263         0.794163        -2.028723
 H         1.976840         2.026531        -0.895774
 H         4.694285         2.159731        -0.083497
 H         1.995443         0.276872         2.223728
