19
Iteration:  4997
 C         4.255241        -1.866954         0.768069
 C         3.205207        -0.907722         0.250535
 O         2.060217        -1.326720        -0.564225
 C         1.445539        -0.012636        -0.132154
 C        -0.116479         0.063333        -0.025034
 C         2.201675         1.127362        -0.985691
 C         3.406532         0.642946        -0.048868
 O         4.558014         1.433774        -0.011078
 C         2.358053         0.074760         1.108823
 H         4.036949        -1.879107         1.917605
 H         4.109500        -2.795458         0.259166
 H         5.196274        -1.357376         0.669455
 H        -0.299910        -0.814107         0.641875
 H        -0.216221         0.994288         0.573073
 H        -0.701059        -0.018691        -0.934469
 H         2.448102         1.159343        -2.078311
 H         1.712777         2.035509        -0.602677
 H         5.379776         0.927612        -0.170072
 H         2.101432         0.151238         2.149602
