19
Iteration:   300
 C         4.259051        -1.924212         0.711172
 C         3.142710        -0.902914         0.213328
 O         1.928440        -1.269343        -0.554940
 C         1.455014         0.070530        -0.181104
 C        -0.051278        -0.093583         0.059105
 C         2.260515         1.048067        -0.968285
 C         3.415649         0.684833        -0.010154
 O         4.610652         1.388967        -0.011137
 C         2.423264         0.202744         1.051354
 H         3.468917        -2.529716         1.275942
 H         4.859626        -2.327294        -0.102590
 H         4.889059        -1.519800         1.539410
 H        -0.264532        -0.986290         0.682092
 H        -0.699164         0.719168         0.457647
 H        -0.402201        -0.424808        -0.878995
 H         2.490781         1.100815        -2.088841
 H         1.923892         2.033910        -0.641281
 H         4.587582         2.142963         0.634837
 H         2.392499         0.419288         2.118691
