19
Iteration:  3509
 C         4.310873        -1.723025         0.757332
 C         3.135571        -0.882344         0.372450
 O         1.976044        -1.288331        -0.372475
 C         1.409105        -0.055381        -0.129465
 C        -0.110197        -0.029278        -0.101684
 C         2.205549         1.043338        -1.008717
 C         3.366332         0.646421        -0.165844
 O         4.672906         1.224089        -0.028369
 C         2.449590         0.304492         1.027237
 H         3.776447        -2.539676         1.185762
 H         4.628037        -2.192551        -0.181616
 H         5.230563        -1.417248         1.354011
 H        -0.482731        -1.004198         0.361400
 H        -0.554394         0.847785         0.432504
 H        -0.431155        -0.090869        -1.219360
 H         2.283156         0.820538        -2.051593
 H         1.869259         2.005495        -0.675483
 H         4.419011         2.075372         0.445925
 H         2.410096         0.435420         2.201418
