19
Iteration:   674
 C         4.112829        -1.884716         0.707135
 C         3.203035        -0.881021         0.200486
 O         2.047081        -1.259156        -0.496053
 C         1.403758         0.043220        -0.086453
 C        -0.033238        -0.200683        -0.009467
 C         2.169517         1.145350        -0.936841
 C         3.353655         0.700063        -0.078299
 O         4.619360         1.252965         0.035015
 C         2.530190         0.286489         1.032951
 H         3.642233        -2.667103         1.164875
 H         4.903448        -2.212442         0.041788
 H         4.667330        -1.314045         1.478133
 H        -0.300504        -1.192171         0.246545
 H        -0.378559         0.544895         0.684380
 H        -0.438795         0.008802        -1.038398
 H         2.213213         1.173102        -2.021132
 H         1.851632         2.126847        -0.655264
 H         4.629768         2.204255        -0.133021
 H         2.403520         0.484684         2.108666
