19
Iteration:  4501
 C         4.206275        -1.863378         0.737957
 C         3.260313        -0.890815         0.181478
 O         2.043500        -1.268677        -0.410015
 C         1.401204         0.016086        -0.090714
 C        -0.144554        -0.118627        -0.110344
 C         2.161265         1.074898        -0.909394
 C         3.400468         0.637658        -0.079003
 O         4.625504         1.328169         0.030745
 C         2.462644         0.347822         1.075354
 H         3.634774        -2.537774         1.362160
 H         4.890574        -2.392924        -0.116072
 H         4.899587        -1.298119         1.428380
 H        -0.497390        -0.568422         0.787257
 H        -0.695340         0.861684        -0.270214
 H        -0.435099        -0.824848        -1.035136
 H         1.998629         0.819657        -1.976309
 H         1.901070         2.093177        -0.629517
 H         4.986208         1.550167        -0.883507
 H         2.375838         0.471913         2.199696
