19
Iteration:  3610charge 0 multiplicity 1
 C         4.232256        -1.739318         0.746830
 C         3.163390        -0.881519         0.327709
 O         2.071604        -1.354849        -0.433855
 C         1.444094         0.084189        -0.166788
 C        -0.105962         0.029285        -0.006327
 C         2.169410         1.012954        -1.095041
 C         3.409305         0.581137        -0.127046
 O         4.592655         1.309319         0.020238
 C         2.444023         0.158724         1.108542
 H         3.949470        -2.474488         1.530008
 H         4.619329        -2.275694        -0.137072
 H         5.022662        -1.091063         0.929733
 H        -0.261095        -0.482618         0.955071
 H        -0.641415         0.966794         0.113311
 H        -0.602869        -0.462804        -0.993968
 H         2.459981         0.566648        -2.025834
 H         1.977874         2.076863        -1.222558
 H         4.270163         2.141827         0.381374
 H         2.234008         0.377883         2.089887
