19
Iteration:  3501charge 0 multiplicity 1
 C         4.272202        -1.745487         0.729563
 C         3.141996        -0.850896         0.323913
 O         2.011958        -1.350779        -0.431255
 C         1.417011         0.012810        -0.095803
 C        -0.050684        -0.018213        -0.087468
 C         2.116518         0.976058        -1.014499
 C         3.409211         0.622713        -0.110400
 O         4.665493         1.237045         0.001191
 C         2.427470         0.325728         1.044475
 H         3.776688        -2.516234         1.406442
 H         4.724351        -2.306906        -0.118612
 H         4.909688        -1.280639         1.456028
 H        -0.454265        -0.967533         0.343720
 H        -0.358364         0.832007         0.474611
 H        -0.522600         0.058997        -1.179916
 H         2.124698         0.869657        -2.119982
 H         1.654625         1.986934        -0.874931
 H         4.631258         2.157442         0.388858
 H         2.604223         0.671623         2.082138
