19
Iteration:  4196
 C         4.260021        -1.736196         0.743864
 C         3.178022        -0.797600         0.282311
 O         2.079281        -1.307797        -0.466346
 C         1.456082        -0.015046        -0.028847
 C        -0.091204        -0.038726        -0.070636
 C         2.143426         1.004245        -1.059415
 C         3.335816         0.620294        -0.134025
 O         4.591483         1.206826         0.038983
 C         2.449784         0.217345         1.089356
 H         3.853058        -2.284337         1.625883
 H         4.570121        -2.327406        -0.141935
 H         5.125433        -1.192817         1.089526
 H        -0.671782        -0.801805         0.453503
 H        -0.445487         0.825923         0.403987
 H        -0.266600        -0.089488        -1.163769
 H         2.279454         0.913018        -2.168275
 H         1.924500         2.043736        -0.821915
 H         4.494127         2.153370         0.078911
 H         2.354764         0.877583         2.068388
