19
Iteration:  2313
 C         4.340619        -1.673292         0.668313
 C         3.218252        -0.836001         0.152064
 O         1.925171        -1.311456        -0.265983
 C         1.395185        -0.027138        -0.113933
 C        -0.095748         0.055307        -0.093500
 C         2.146729         0.995453        -1.024186
 C         3.326819         0.677454        -0.151457
 O         4.684505         1.113339         0.138074
 C         2.512854         0.197312         0.981498
 H         3.865172        -2.576538         1.114609
 H         4.868347        -2.019210        -0.246361
 H         4.926403        -1.024171         1.301209
 H        -0.457992        -0.765107         0.754251
 H        -0.615530         0.932629         0.271447
 H        -0.623049        -0.173034        -1.070090
 H         2.380030         0.932583        -2.045726
 H         1.569888         1.917001        -0.850648
 H         4.515619         2.060814         0.297608
 H         2.414691         0.768794         1.956492
