19
Iteration:  1809charge 0 multiplicity 1
 C         4.275194        -1.769162         0.583813
 C         3.095960        -0.849531         0.419369
 O         2.082081        -1.290763        -0.396501
 C         1.405384         0.035983        -0.172755
 C        -0.099076         0.040463        -0.121065
 C         2.145581         0.886651        -1.057838
 C         3.356535         0.738278         0.043112
 O         4.686832         1.210382        -0.004919
 C         2.447790         0.247722         1.174590
 H         4.261778        -2.691028         1.081882
 H         4.374121        -2.258635        -0.419950
 H         5.282783        -1.263340         0.675472
 H        -0.452746        -0.707386         0.618658
 H        -0.623039         1.021612         0.125150
 H        -0.603436        -0.332414        -1.114058
 H         2.254030         0.494401        -2.055679
 H         1.839093         1.989557        -0.996323
 H         4.502187         2.112680         0.230311
 H         2.071056         0.518835         2.311527
