19
Iteration:    28
 C         4.309734        -1.740364         0.544095
 C         3.181762        -0.768829         0.241935
 O         2.017443        -1.272376        -0.446283
 C         1.352138         0.003872        -0.034254
 C        -0.115316        -0.083392        -0.173569
 C         2.177923         1.067497        -0.888531
 C         3.348793         0.740140         0.057825
 O         4.723549         1.149029         0.077335
 C         2.339792         0.228252         1.151838
 H         4.243825        -2.594600         1.271041
 H         4.482961        -2.121949        -0.502950
 H         5.128361        -1.089935         1.001341
 H        -0.488813        -0.968054         0.395145
 H        -0.505894         0.921323         0.130735
 H        -0.495722        -0.347310        -1.221350
 H         2.340859         0.607469        -1.895930
 H         1.742580         2.077074        -1.030050
 H         4.992629         1.304482        -0.824800
 H         2.296019         0.386323         2.259554
