19
Iteration:  2221charge 0 multiplicity 1
 C         4.253256        -1.907947         0.813455
 C         3.192621        -0.888629         0.199580
 O         2.008627        -1.251201        -0.446590
 C         1.407663         0.059959        -0.078860
 C        -0.139227        -0.089134        -0.063937
 C         2.128293         1.099557        -0.980591
 C         3.410894         0.624287        -0.189153
 O         4.649755         1.254842         0.028874
 C         2.491356         0.273227         1.044623
 H         3.827230        -2.555928         1.574004
 H         4.753098        -2.548857         0.083608
 H         5.031011        -1.337605         1.331862
 H        -0.137295        -0.707100         0.732580
 H        -0.621836         0.844307         0.400246
 H        -0.567177        -0.364238        -1.130225
 H         2.135360         0.911556        -2.091004
 H         1.752008         2.088150        -0.833144
 H         4.474508         2.233096         0.211507
 H         2.613414         0.882836         1.915104
