19
Iteration:  2218charge 0 multiplicity 1
 C         4.279247        -1.880377         0.800749
 C         3.173113        -0.879051         0.191386
 O         2.041180        -1.269327        -0.440019
 C         1.436190         0.096241        -0.073623
 C        -0.147173        -0.062725        -0.052246
 C         2.149003         1.109464        -0.987184
 C         3.414731         0.604208        -0.173692
 O         4.629678         1.243164         0.029414
 C         2.470818         0.264699         1.022278
 H         3.685591        -2.499494         1.631245
 H         4.634306        -2.570837        -0.031616
 H         5.050823        -1.389033         1.368962
 H        -0.197438        -0.871665         0.747875
 H        -0.740672         0.835897         0.369839
 H        -0.596383        -0.407897        -1.011002
 H         2.170570         0.784859        -2.129556
 H         1.695287         2.138944        -0.904772
 H         4.377520         2.130499         0.236471
 H         2.612404         0.801157         2.012174
