19
Iteration:  3272charge 0 multiplicity 1
 C         4.116705        -1.827251         0.806859
 C         3.203689        -0.823454         0.367151
 O         2.056817        -1.278905        -0.514756
 C         1.421912         0.018013        -0.094117
 C        -0.078544        -0.026646         0.017800
 C         2.271543         0.944734        -1.023444
 C         3.398101         0.653266        -0.107133
 O         4.593585         1.346797        -0.096233
 C         2.437031         0.218970         1.014622
 H         3.518532        -2.660624         1.290341
 H         4.710510        -2.232804        -0.057981
 H         4.891446        -1.373542         1.471879
 H        -0.417828        -0.924061         0.565050
 H        -0.511247         0.808700         0.545665
 H        -0.627800        -0.189017        -0.986132
 H         2.379940         0.533558        -2.051704
 H         2.199329         2.055278        -0.911482
 H         4.683998         2.036331         0.569001
 H         2.255293         0.535630         2.008247
