19
Iteration:   960charge 0 multiplicity 1
 C         4.276051        -1.786730         0.601684
 C         3.209440        -0.822752         0.271438
 O         2.016572        -1.307846        -0.439649
 C         1.415434        -0.003086        -0.032175
 C        -0.069393        -0.047784        -0.172107
 C         2.165710         1.101555        -0.859615
 C         3.395955         0.622025        -0.131169
 O         4.591326         1.226177         0.037867
 C         2.426951         0.249594         1.091828
 H         3.880275        -2.488961         1.331749
 H         4.612065        -2.388820        -0.292783
 H         5.195787        -1.290691         0.891659
 H        -0.403947        -0.623700         0.771542
 H        -0.596089         0.946960        -0.165807
 H        -0.250739        -0.603099        -1.132399
 H         2.162513         1.176746        -1.954563
 H         1.747829         2.102446        -0.545788
 H         4.376013         2.057486         0.471538
 H         2.440777         0.225857         2.271367
