19
Iteration:  4922
 C         4.285920        -1.786580         0.493439
 C         3.170960        -0.808354         0.387914
 O         1.998005        -1.297953        -0.371085
 C         1.355602         0.023191        -0.116139
 C        -0.128052        -0.026381        -0.076312
 C         2.290774         0.975237        -1.024410
 C         3.359232         0.628011        -0.084441
 O         4.569193         1.248056         0.163041
 C         2.466910         0.305681         1.088793
 H         3.935030        -2.643893         1.121469
 H         4.623940        -1.989333        -0.486689
 H         5.007411        -1.292358         1.043970
 H        -0.302529        -0.690792         0.745626
 H        -0.577569         0.971749        -0.031994
 H        -0.221682        -0.553034        -1.092664
 H         2.286353         0.870065        -2.117327
 H         1.927744         1.916389        -0.701617
 H         4.934981         1.253538        -0.737723
 H         2.420900         0.791591         2.032189
