19
Iteration:  4359charge 0 multiplicity 1
 C         4.236542        -1.761711         0.676993
 C         3.165906        -0.818360         0.363778
 O         2.017937        -1.339444        -0.452383
 C         1.410949        -0.068416        -0.041349
 C        -0.021643        -0.051455        -0.081095
 C         2.277376         1.043108        -1.012549
 C         3.360827         0.759558        -0.015456
 O         4.612228         1.289164        -0.065343
 C         2.340849         0.159708         1.117969
 H         4.100380        -2.264213         1.601525
 H         4.251788        -2.463111        -0.169308
 H         5.223272        -1.416045         0.757883
 H        -0.565575        -0.624711         0.603163
 H        -0.405481         0.926762         0.108407
 H        -0.282488        -0.330641        -1.152969
 H         2.434383         0.626785        -2.046058
 H         1.779328         2.015297        -1.084650
 H         4.578907         2.282075        -0.089402
 H         2.284489         0.464213         2.117470
