19
Iteration:  4595
 C         4.293328        -1.640710         0.713395
 C         3.180943        -0.865323         0.284239
 O         2.018437        -1.336557        -0.481583
 C         1.369282        -0.059867        -0.036700
 C        -0.125410         0.116805        -0.048010
 C         2.203680         0.942867        -0.989641
 C         3.441879         0.560529        -0.118278
 O         4.563279         1.344197        -0.021339
 C         2.416023         0.168251         1.058088
 H         4.076408        -2.406849         1.519999
 H         4.701373        -2.102168        -0.159384
 H         5.089620        -1.009205         1.075115
 H        -0.617064        -0.848486         0.313085
 H        -0.346958         0.929926         0.636923
 H        -0.382809         0.258947        -1.103530
 H         2.036886         0.626678        -2.052990
 H         1.859452         1.986869        -0.791438
 H         5.241193         1.026236         0.587901
 H         2.403662         0.310302         2.115582
