19
Iteration:  4184
 C         4.278847        -1.797802         0.750991
 C         3.240744        -0.822381         0.327212
 O         2.130323        -1.256094        -0.440417
 C         1.377013         0.000378        -0.174607
 C        -0.091394        -0.079936        -0.062274
 C         2.231956         1.086973        -0.982809
 C         3.316543         0.685055        -0.056824
 O         4.570156         1.154677        -0.048891
 C         2.342107         0.270211         1.066824
 H         3.980245        -2.414510         1.648127
 H         4.550652        -2.624393         0.038066
 H         5.154794        -1.215352         0.950471
 H        -0.333910        -0.915828         0.664173
 H        -0.431607         0.895650         0.186379
 H        -0.654378        -0.239543        -0.990781
 H         2.212053         0.811620        -2.074419
 H         1.764167         2.062837        -0.753107
 H         4.593070         2.154735        -0.022925
 H         2.341395         0.558866         2.214597
