19
Iteration:  1597charge 0 multiplicity 1
 C         4.392512        -1.713717         0.601032
 C         3.167466        -0.819694         0.261054
 O         1.905039        -1.313891        -0.392343
 C         1.391824        -0.003291        -0.019785
 C        -0.072997        -0.023077        -0.167922
 C         2.120033         1.031177        -1.008779
 C         3.346998         0.675470        -0.090764
 O         4.705584         1.129469         0.094558
 C         2.474164         0.283039         1.087730
 H         3.957688        -2.436424         1.365861
 H         4.585722        -2.516383        -0.088104
 H         5.210534        -1.020484         0.756327
 H        -0.453114        -0.544170         0.805725
 H        -0.508134         1.015436        -0.195457
 H        -0.539615        -0.633153        -1.045759
 H         2.240067         0.756448        -2.118188
 H         1.696997         1.967678        -0.690770
 H         4.647478         2.060546         0.323470
 H         2.285364         0.700590         2.161415
