19
Iteration:  1077
 C         4.295313        -1.685636         0.606104
 C         3.141611        -0.852330         0.370303
 O         1.990334        -1.300670        -0.527847
 C         1.395803        -0.047363        -0.187362
 C        -0.044827         0.003809        -0.041135
 C         2.289475         0.940360        -0.910303
 C         3.326529         0.702767         0.072679
 O         4.613370         1.203659        -0.057721
 C         2.349476         0.231584         1.093080
 H         3.963290        -2.595437         1.007787
 H         4.936963        -1.746138        -0.356242
 H         5.070403        -1.138223         1.187262
 H        -0.506235        -0.910416         0.396572
 H        -0.377856         0.758942         0.596010
 H        -0.478905         0.137917        -1.066731
 H         2.461124         0.778418        -1.993033
 H         1.991238         1.961559        -0.868668
 H         4.761887         1.919630         0.596041
 H         2.204763         0.425436         2.282630
