19
Iteration:  3046charge 0 multiplicity 1
 C         4.254390        -1.678432         0.726265
 C         3.208226        -0.828837         0.221249
 O         1.893403        -1.351320        -0.396885
 C         1.358614         0.054782        -0.040597
 C        -0.162304        -0.070749        -0.147824
 C         2.215304         1.066874        -1.001660
 C         3.455259         0.641474        -0.121639
 O         4.751834         1.197792        -0.006449
 C         2.470232         0.196004         1.109893
 H         3.939266        -2.464044         1.456909
 H         4.893465        -2.046670        -0.113531
 H         5.006675        -1.046941         1.223835
 H        -0.368047        -0.549463         0.816873
 H        -0.813648         0.883409        -0.004093
 H        -0.554355        -0.515757        -1.000889
 H         2.058546         0.771419        -2.124283
 H         1.738290         2.064503        -0.775244
 H         4.643166         2.137481         0.315816
 H         2.271865         0.207143         2.164097
