19
Iteration:   982
 C         4.229749        -1.917767         0.625130
 C         3.234337        -0.879843         0.333799
 O         2.130134        -1.230831        -0.567303
 C         1.363125        -0.021066        -0.114160
 C        -0.113033        -0.039930        -0.084878
 C         2.135861         1.022882        -0.922473
 C         3.323489         0.806786         0.080568
 O         4.627456         1.302342        -0.051363
 C         2.433098         0.128592         1.163449
 H         3.791545        -2.507164         1.431700
 H         4.582484        -2.549945        -0.242989
 H         5.111701        -1.332125         0.814429
 H        -0.635228        -0.286161         0.930755
 H        -0.371578         1.038948        -0.367450
 H        -0.412402        -0.749091        -0.903287
 H         2.261635         0.853648        -1.994757
 H         1.745443         2.091430        -1.010949
 H         4.812490         2.176821         0.386120
 H         2.446628         0.486500         2.333177
