19
Iteration:   230
 C         4.375661        -1.782910         0.532436
 C         3.164542        -0.864741         0.324277
 O         1.894696        -1.369072        -0.384942
 C         1.389835        -0.011514        -0.078285
 C        -0.176375         0.067371        -0.153816
 C         2.254322         1.017045        -1.011883
 C         3.391653         0.626551        -0.062082
 O         4.596032         1.411187         0.105196
 C         2.471583         0.175841         1.095465
 H         4.145903        -2.543532         1.250919
 H         4.741241        -2.117452        -0.458114
 H         5.188441        -1.177447         1.010187
 H        -0.591921        -0.677519         0.498134
 H        -0.651271         0.986869         0.102573
 H        -0.439964        -0.284215        -1.170546
 H         2.331540         0.912353        -2.057558
 H         1.944444         2.030290        -0.705208
 H         5.236488         0.764514         0.488677
 H         2.510883         0.270488         2.225203
