19
Iteration:  1989charge 0 multiplicity 1
 C         4.291556        -1.694229         0.579389
 C         3.092205        -0.791962         0.433217
 O         2.041863        -1.376073        -0.409249
 C         1.383323        -0.047529        -0.111054
 C        -0.099613         0.079710        -0.068703
 C         2.272626         0.942812        -1.013724
 C         3.388663         0.630889        -0.068144
 O         4.652480         1.281782        -0.029888
 C         2.361356         0.202345         1.126018
 H         4.107392        -2.659650         1.254287
 H         4.244528        -2.067191        -0.471668
 H         5.300599        -1.303461         0.719360
 H        -0.654982        -0.544323         0.803419
 H        -0.523254         1.112159         0.002502
 H        -0.437796        -0.237518        -1.079873
 H         2.426700         0.742540        -2.138164
 H         1.966099         1.989490        -1.066544
 H         4.511130         1.774528         0.806662
 H         2.401371         0.398203         2.133089
