19
Iteration:  2394charge 0 multiplicity 1
 C         4.124764        -1.858772         0.719678
 C         3.236918        -0.806169         0.259547
 O         2.014409        -1.285149        -0.453723
 C         1.442657        -0.021214        -0.056795
 C        -0.099746        -0.029191        -0.080273
 C         2.151344         1.019742        -0.964032
 C         3.393378         0.667477        -0.152687
 O         4.676425         1.322324         0.021221
 C         2.482088         0.192034         1.094612
 H         3.632406        -2.222333         1.642774
 H         4.319809        -2.671596         0.003671
 H         5.110049        -1.417255         1.100145
 H        -0.426463        -0.812275         0.631287
 H        -0.646776         0.936669         0.185428
 H        -0.397559        -0.340120        -1.081227
 H         1.851724         0.805512        -2.014755
 H         1.923196         2.024729        -0.647991
 H         4.667711         2.191563        -0.351767
 H         2.871406         0.507353         2.068784
