19
Iteration:  4410
 C         4.357237        -1.712105         0.671304
 C         3.185196        -0.791153         0.259946
 O         1.938981        -1.417622        -0.307628
 C         1.412409        -0.050827        -0.132920
 C        -0.052466         0.063821        -0.072045
 C         2.212289         0.931321        -1.139758
 C         3.350184         0.721617        -0.117741
 O         4.589788         1.249105         0.092703
 C         2.458655         0.309316         1.069516
 H         3.861003        -2.604155         1.268280
 H         4.759540        -2.181947        -0.362273
 H         5.368206        -1.464347         1.046974
 H        -0.429738        -1.028543         0.244705
 H        -0.636148         0.740503         0.582116
 H        -0.492897         0.014978        -1.108396
 H         2.184524         0.608242        -2.167856
 H         1.791605         1.953789        -1.015854
 H         4.550086         1.727039         0.918430
 H         2.232744         0.830559         2.033881
