19
Iteration:  2969charge 0 multiplicity 1
 C         4.307376        -1.814185         0.602393
 C         3.135095        -0.883191         0.296410
 O         1.948231        -1.351499        -0.375724
 C         1.383148         0.020645        -0.138121
 C        -0.107366         0.011684        -0.081702
 C         2.200439         0.975803        -1.104714
 C         3.360337         0.656232        -0.022463
 O         4.637587         1.324332         0.085856
 C         2.528834         0.287991         1.113071
 H         3.821304        -2.453128         1.359730
 H         4.631203        -2.503703        -0.193491
 H         5.257158        -1.334271         1.033459
 H        -0.553889        -0.842261         0.482379
 H        -0.540025         0.931032         0.444617
 H        -0.435372        -0.168831        -1.040197
 H         2.308622         0.342773        -2.056910
 H         1.966398         2.044667        -1.243015
 H         4.567648         2.303042         0.146895
 H         2.638317         0.619030         2.187898
