19
Iteration:  3076
 C         4.183971        -1.856414         0.842238
 C         3.245001        -0.799757         0.338970
 O         2.032263        -1.263654        -0.546783
 C         1.430217         0.035051        -0.143660
 C        -0.049366        -0.097279        -0.066211
 C         2.205406         1.100805        -0.974557
 C         3.378458         0.615601        -0.056349
 O         4.594893         1.218806        -0.148571
 C         2.429085         0.251933         1.158376
 H         3.623352        -2.690204         1.245648
 H         4.697457        -2.248119        -0.024055
 H         4.968993        -1.486967         1.587649
 H        -0.203280        -0.837724         0.802054
 H        -0.352441         0.900729         0.301166
 H        -0.787768        -0.322502        -0.967503
 H         2.222376         0.972737        -2.103141
 H         1.834665         2.121002        -0.758673
 H         4.453966         2.142622         0.136817
 H         2.370222         0.727498         2.167038
