19
Iteration:   219
 C         4.308422        -1.707139         0.572267
 C         3.181851        -0.878854         0.353754
 O         1.941652        -1.364769        -0.378448
 C         1.415048         0.037521        -0.143833
 C        -0.155687         0.063413        -0.164985
 C         2.282636         0.993439        -0.891130
 C         3.453001         0.624111        -0.099009
 O         4.535848         1.356825         0.061303
 C         2.420918         0.146641         1.107560
 H         4.332954        -2.652327         1.049090
 H         4.504039        -2.069458        -0.490580
 H         5.188039        -1.079765         0.862422
 H        -0.338271        -0.710875         0.537128
 H        -0.664626         0.965145         0.102923
 H        -0.584126        -0.185749        -1.149850
 H         2.269838         0.996151        -1.928144
 H         1.996656         2.016745        -0.588981
 H         5.412037         0.830963         0.111358
 H         2.092534         0.234587         2.217849
