19
Iteration:  4485charge 0 multiplicity 1
 C         4.165663        -1.729524         0.799588
 C         3.144561        -0.760156         0.310269
 O         2.025424        -1.366331        -0.507487
 C         1.387662         0.006293        -0.026866
 C        -0.081683        -0.091352        -0.105336
 C         2.159351         1.062214        -0.919646
 C         3.419850         0.662424        -0.142239
 O         4.673519         1.300273         0.012023
 C         2.516763         0.152499         1.023172
 H         3.611956        -2.647875         1.180313
 H         4.725073        -2.160628         0.008001
 H         4.895459        -1.293072         1.461755
 H        -0.660460        -0.567814         0.784097
 H        -0.582663         0.865696        -0.142396
 H        -0.381118        -0.714220        -0.925325
 H         2.244191         1.140134        -2.003439
 H         1.712702         1.988100        -0.442718
 H         4.808073         1.844626        -0.811027
 H         2.632774         0.535689         2.009772
