19
Iteration:  2199
 C         4.158675        -1.775679         0.711219
 C         3.208483        -0.771129         0.308488
 O         2.036755        -1.299054        -0.476938
 C         1.374090         0.036941        -0.109414
 C        -0.090859        -0.065892         0.042182
 C         2.248021         0.954355        -1.068603
 C         3.372638         0.671385        -0.097503
 O         4.616713         1.239692         0.007254
 C         2.436166         0.228610         1.051419
 H         3.918756        -2.441618         1.506590
 H         4.453145        -2.355884        -0.153162
 H         5.079994        -1.300149         1.006833
 H        -0.311786        -0.703718         0.792322
 H        -0.434607         0.987228         0.310657
 H        -0.392513        -0.233242        -1.058456
 H         2.313681         0.827595        -2.158830
 H         2.208022         2.005246        -0.907108
 H         4.651313         2.075021         0.450269
 H         2.300854         0.307552         2.126080
