19
Iteration:  1202
 C         4.196577        -1.805670         0.634803
 C         3.240966        -0.825067         0.284765
 O         2.016976        -1.308781        -0.484962
 C         1.409311         0.004352        -0.135060
 C        -0.072326        -0.066026         0.032052
 C         2.207381         1.106804        -1.096328
 C         3.392063         0.772825        -0.097301
 O         4.602619         1.259025         0.096183
 C         2.446795         0.158795         1.060891
 H         3.767505        -2.579360         1.413197
 H         4.346292        -2.479095        -0.209334
 H         5.074444        -1.387508         1.197750
 H        -0.297968        -0.328686         1.042016
 H        -0.645407         0.857443        -0.298196
 H        -0.539419        -0.779675        -0.625509
 H         2.306943         0.744347        -2.099471
 H         2.011392         2.231858        -0.962696
 H         4.526953         1.814443         0.910426
 H         2.420720         0.118387         2.097451
