19
Iteration:  2426
 C         4.246901        -1.835123         0.705835
 C         3.166254        -0.866060         0.313266
 O         2.001919        -1.321469        -0.431522
 C         1.424028         0.047703        -0.068159
 C        -0.141324         0.001739        -0.074274
 C         2.214050         1.075968        -0.982448
 C         3.375183         0.675785        -0.104440
 O         4.651119         1.227974        -0.033752
 C         2.448936         0.238087         1.056592
 H         3.877743        -2.593485         1.448116
 H         4.874775        -2.369484        -0.035424
 H         5.003210        -1.204522         1.296325
 H        -0.328751        -1.018787         0.503459
 H        -0.799726         0.917591         0.291792
 H        -0.409265        -0.326481        -1.098435
 H         2.050936         0.837199        -2.048511
 H         2.014813         2.083417        -0.704887
 H         4.630093         2.244679        -0.050219
 H         2.560353         0.430624         2.140687
