19
Iteration:   980
 C         4.222331        -1.905685         0.634336
 C         3.223137        -0.885975         0.339355
 O         2.138173        -1.241360        -0.559612
 C         1.367173        -0.001944        -0.117790
 C        -0.109587        -0.030199        -0.090656
 C         2.126009         1.035478        -0.921851
 C         3.310000         0.797482         0.072574
 O         4.620742         1.293124        -0.043250
 C         2.468260         0.119195         1.152165
 H         3.823595        -2.495971         1.390705
 H         4.544473        -2.512875        -0.290589
 H         5.131334        -1.292007         0.808675
 H        -0.684434        -0.335233         0.842328
 H        -0.327100         0.960090        -0.345251
 H        -0.402085        -0.753670        -0.876877
 H         2.192149         0.848847        -1.999571
 H         1.758664         2.070996        -0.950000
 H         4.817694         2.162848         0.381273
 H         2.449083         0.541321         2.323668
