19
Iteration:  2533charge 0 multiplicity 1
 C         4.220535        -1.903346         0.727249
 C         3.196956        -0.840876         0.324233
 O         2.088933        -1.180918        -0.464025
 C         1.405628         0.010943        -0.138306
 C        -0.043991        -0.008254        -0.011109
 C         2.192468         0.966354        -1.021038
 C         3.364960         0.703408        -0.024465
 O         4.624762         1.250538        -0.099215
 C         2.357638         0.198618         1.130620
 H         3.866411        -2.697138         1.426569
 H         4.565869        -2.316758        -0.238038
 H         5.084446        -1.431521         1.194213
 H        -0.531522        -0.697283         0.789801
 H        -0.430347         1.061402         0.100554
 H        -0.401592        -0.399425        -0.918661
 H         2.440882         0.879593        -2.104841
 H         1.633954         1.977394        -0.867963
 H         4.467928         2.231510         0.003221
 H         2.289985         0.321098         2.235184
