19
Iteration:  1052charge 0 multiplicity 1
 C         4.311941        -1.814043         0.626112
 C         3.238025        -0.770465         0.228445
 O         2.069444        -1.300163        -0.457276
 C         1.346716         0.025040        -0.097329
 C        -0.137302        -0.012826         0.003764
 C         2.149460         1.028520        -1.057905
 C         3.359528         0.686308        -0.138100
 O         4.693755         1.195593         0.168230
 C         2.370272         0.211509         1.060548
 H         3.673675        -2.582263         1.124180
 H         4.912869        -2.155672        -0.189300
 H         5.088929        -1.331916         1.269394
 H        -0.496115        -0.807637         0.674154
 H        -0.684909         0.946017         0.343315
 H        -0.489666        -0.375794        -1.013988
 H         2.128833         0.812826        -2.159607
 H         1.785459         2.063515        -0.978623
 H         4.523674         2.143185         0.418652
 H         2.419436         0.274285         2.088911
