19
Iteration:  3542charge 0 multiplicity 1
 C         4.312857        -1.732690         0.638039
 C         3.112732        -0.785186         0.346773
 O         2.003882        -1.302621        -0.420735
 C         1.361960         0.020251        -0.094214
 C        -0.048902        -0.038563        -0.157788
 C         2.235940         0.919483        -0.926257
 C         3.298922         0.638161         0.011327
 O         4.707548         1.191229        -0.089195
 C         2.388212         0.342420         1.148241
 H         3.983997        -2.571274         1.231267
 H         4.700778        -2.173470        -0.293209
 H         5.240068        -1.255053         1.075926
 H        -0.408825        -0.686636         0.695407
 H        -0.652291         0.869259        -0.166663
 H        -0.293904        -0.491286        -1.202339
 H         2.274933         0.537926        -1.927123
 H         1.878586         1.933639        -0.953684
 H         4.545459         2.045624         0.342503
 H         2.140109         0.768915         2.222727
