19
Iteration:  1851charge 0 multiplicity 1
 C         4.222841        -1.880679         0.723891
 C         3.217471        -0.895002         0.226386
 O         1.977055        -1.360638        -0.352510
 C         1.430270         0.076006        -0.165708
 C        -0.108592        -0.046644        -0.024906
 C         2.192686         1.056228        -1.068827
 C         3.395433         0.702954        -0.106289
 O         4.608709         1.302527         0.069691
 C         2.494685         0.228624         0.987744
 H         3.684032        -2.625755         1.223612
 H         4.910912        -2.221674        -0.063591
 H         4.861979        -1.200545         1.286368
 H        -0.201650        -0.760695         0.705832
 H        -0.376140         0.911452         0.451821
 H        -0.625337        -0.116981        -1.025683
 H         2.134506         0.917853        -2.167127
 H         1.744963         2.060777        -0.838282
 H         4.587036         2.222091         0.405092
 H         2.501840         0.403797         2.134659
