19
Iteration:  1602charge 0 multiplicity 1
 C         4.389270        -1.670975         0.583642
 C         3.121843        -0.842087         0.275842
 O         1.920135        -1.309617        -0.397753
 C         1.416298        -0.015219        -0.050896
 C        -0.090076        -0.005294        -0.148128
 C         2.121112         0.997295        -0.976377
 C         3.372658         0.665051        -0.083948
 O         4.706648         1.117798         0.066514
 C         2.435060         0.307150         1.097339
 H         4.120466        -2.367467         1.369579
 H         4.577128        -2.549285        -0.125247
 H         5.211761        -0.989180         0.905070
 H        -0.482041        -0.579985         0.620569
 H        -0.388725         1.015703        -0.251243
 H        -0.370335        -0.600347        -0.964582
 H         2.088443         0.799260        -2.009954
 H         1.856376         2.049495        -0.654589
 H         4.570572         2.031106         0.427652
 H         2.324341         0.586522         2.072370
