19
Iteration:   835charge 0 multiplicity 1
 C         4.197110        -1.888130         0.671820
 C         3.197937        -0.826343         0.232864
 O         2.106346        -1.232713        -0.516617
 C         1.408964         0.017782        -0.107517
 C        -0.121404        -0.098590        -0.085013
 C         2.165051         1.090714        -0.875920
 C         3.371707         0.714912        -0.027425
 O         4.581078         1.296648        -0.047839
 C         2.533624         0.180181         1.125073
 H         3.638464        -2.610882         1.373339
 H         4.625331        -2.348063        -0.220322
 H         5.017224        -1.490935         1.340093
 H        -0.529723        -0.680304         0.717933
 H        -0.604220         0.889312         0.012044
 H        -0.458122        -0.663447        -0.963160
 H         2.269202         0.784008        -1.946508
 H         1.800952         2.102119        -0.663976
 H         4.625466         2.102344         0.467858
 H         2.317829         0.176145         2.157198
