19
Iteration:  4395charge 0 multiplicity 1
 C         4.391763        -1.832276         0.620276
 C         3.275059        -0.807906         0.376035
 O         1.960218        -1.339832        -0.265239
 C         1.377913         0.001113        -0.068000
 C        -0.192168        -0.023500        -0.130906
 C         2.214365         1.022074        -1.139640
 C         3.317750         0.638938        -0.148222
 O         4.580243         1.286134         0.081050
 C         2.473256         0.246989         0.994079
 H         4.126532        -2.457280         1.438653
 H         4.601218        -2.429548        -0.179725
 H         5.206921        -1.109420         0.928099
 H        -0.596848        -0.943365         0.257931
 H        -0.455763         0.912286         0.406396
 H        -0.445601         0.157935        -1.132295
 H         2.460436         0.669393        -2.164719
 H         1.874329         2.079432        -1.115559
 H         4.498653         1.842410         0.911262
 H         2.514768         0.751410         2.015333
