19
Iteration:  1121charge 0 multiplicity 1
 C         4.272323        -1.726582         0.650771
 C         3.165679        -0.792685         0.240146
 O         2.017888        -1.339949        -0.446281
 C         1.404567        -0.080297        -0.010449
 C        -0.167708         0.049492        -0.193532
 C         2.143406         0.981197        -0.889038
 C         3.408960         0.621193        -0.072624
 O         4.657813         1.219922         0.028666
 C         2.508794         0.247974         1.087298
 H         3.804362        -2.506097         1.194969
 H         4.899359        -2.015833        -0.286395
 H         5.071058        -1.199622         1.222794
 H        -0.780849        -0.896484         0.007300
 H        -0.585635         0.737081         0.470592
 H        -0.419626         0.257186        -1.258144
 H         2.205125         0.980829        -2.001492
 H         1.635489         1.892509        -0.627046
 H         4.522857         2.113173         0.420830
 H         2.738568         0.509655         2.245748
