19
Iteration:  4437charge 0 multiplicity 1
 C         4.270035        -1.721222         0.705358
 C         3.092529        -0.805978         0.385547
 O         2.089542        -1.281235        -0.468691
 C         1.373909        -0.069604        -0.146990
 C        -0.150469        -0.003851         0.014640
 C         2.278682         0.958199        -1.104571
 C         3.391735         0.614699        -0.083717
 O         4.647333         1.269186        -0.025740
 C         2.371177         0.196774         1.124973
 H         4.062773        -2.636234         1.172024
 H         4.879955        -1.866349        -0.169211
 H         4.995949        -1.135319         1.284834
 H        -0.605996        -0.786795         0.539073
 H        -0.392625         0.951607         0.501380
 H        -0.628204        -0.029115        -0.984193
 H         2.392023         0.531074        -2.139193
 H         2.122913         2.042852        -1.121643
 H         4.467066         2.125259         0.395676
 H         2.117787         0.525719         2.144664
