19
Iteration:  2999charge 0 multiplicity 1
 C         4.320885        -1.679432         0.509800
 C         3.130485        -0.846318         0.457956
 O         2.070165        -1.368009        -0.336677
 C         1.389117        -0.023036        -0.179698
 C        -0.043341         0.102786        -0.056226
 C         2.246807         0.947892        -1.043185
 C         3.377612         0.609724        -0.000212
 O         4.625268         1.217042         0.011388
 C         2.250490         0.245941         1.082293
 H         4.084972        -2.429523         1.242450
 H         4.315671        -2.188357        -0.437639
 H         5.389928        -1.325849         0.652461
 H        -0.401912        -0.550557         0.798084
 H        -0.448106         1.068766         0.031066
 H        -0.500191        -0.190623        -1.082718
 H         2.351393         0.603722        -2.154657
 H         2.052187         2.056415        -1.024845
 H         4.517955         2.136804         0.220345
 H         2.177815         0.500359         2.177706
