19
Iteration:  4755
 C         4.355297        -1.760227         0.587527
 C         3.236964        -0.863597         0.220140
 O         1.948651        -1.433129        -0.388023
 C         1.378646        -0.007304        -0.042340
 C        -0.020640         0.100116        -0.098234
 C         2.178860         0.955778        -1.017817
 C         3.348711         0.569164        -0.047354
 O         4.587324         1.404098         0.114629
 C         2.369703         0.248975         1.087260
 H         4.221628        -2.045827         1.674895
 H         4.545512        -2.573867        -0.069083
 H         5.255483        -1.021070         0.681966
 H        -0.600198        -0.802766         0.445007
 H        -0.321256         1.092905         0.373618
 H        -0.287324         0.192448        -1.121222
 H         2.249494         0.725146        -2.065842
 H         1.693014         1.937557        -0.847810
 H         5.066479         1.009201        -0.604535
 H         2.156884         0.598073         2.103233
