19
Iteration:  3018charge 0 multiplicity 1
 C         4.334820        -1.725750         0.598816
 C         3.168761        -0.827975         0.375147
 O         2.075514        -1.305897        -0.422152
 C         1.407843        -0.008910        -0.041285
 C        -0.104559         0.069778        -0.130801
 C         2.219145         0.960246        -1.050294
 C         3.298835         0.679063        -0.048815
 O         4.570047         1.089807         0.030467
 C         2.431065         0.289942         1.102592
 H         4.304110        -2.511338         1.357538
 H         4.679960        -2.122691        -0.376755
 H         5.101103        -1.008816         0.846441
 H        -0.565452        -0.363392         0.776487
 H        -0.422411         1.104822         0.009382
 H        -0.546959        -0.498229        -1.085434
 H         2.234731         0.599505        -2.025617
 H         1.683700         1.872697        -0.889159
 H         4.692137         1.990927         0.373528
 H         2.171191         0.711965         2.077097
