19
Iteration:  1992
 C         4.296504        -1.715187         0.609884
 C         3.118322        -0.809453         0.425264
 O         2.048076        -1.389960        -0.431205
 C         1.385375        -0.034127        -0.114404
 C        -0.135151         0.068287        -0.043036
 C         2.291543         0.966710        -1.020958
 C         3.381558         0.631275        -0.061798
 O         4.636820         1.280268        -0.040637
 C         2.358769         0.211806         1.123327
 H         4.056182        -2.680290         1.200456
 H         4.226975        -2.067843        -0.452196
 H         5.307804        -1.212546         0.676880
 H        -0.606534        -0.464650         0.734521
 H        -0.437967         1.170286         0.033997
 H        -0.445119        -0.251964        -1.107536
 H         2.535948         0.750018        -2.082778
 H         1.868984         1.978031        -1.102575
 H         4.502762         1.782957         0.808124
 H         2.401637         0.477715         2.281423
