19
Iteration:  3457charge 0 multiplicity 1
 C         4.197015        -1.819987         0.839323
 C         3.203993        -0.851853         0.317304
 O         1.955653        -1.368936        -0.554192
 C         1.416614        -0.035660        -0.265012
 C        -0.057975         0.015356         0.070486
 C         2.269574         0.956203        -1.031567
 C         3.376543         0.680220        -0.055243
 O         4.674802         1.340457        -0.028888
 C         2.373508         0.267561         1.059528
 H         3.931371        -2.703298         1.455589
 H         4.724926        -2.135474        -0.095659
 H         4.901877        -1.203380         1.371220
 H        -0.268509        -0.861990         0.722223
 H        -0.158647         0.923623         0.575203
 H        -0.827766        -0.102406        -0.796846
 H         2.287629         0.704797        -2.121474
 H         2.085468         2.064307        -0.885411
 H         4.390849         2.279278         0.153073
 H         2.226313         0.507766         2.181026
