19
Iteration:  2941
 C         4.209472        -1.823298         0.747592
 C         3.201326        -0.812422         0.266641
 O         2.085691        -1.281780        -0.459218
 C         1.423311        -0.033772        -0.094770
 C        -0.085115        -0.060006        -0.023577
 C         2.154887         1.053389        -0.964140
 C         3.412287         0.565855        -0.169546
 O         4.600360         1.281631        -0.040395
 C         2.456167         0.311870         1.087691
 H         3.533217        -2.501693         1.307424
 H         4.566396        -2.491520        -0.057317
 H         4.977352        -1.491906         1.374780
 H        -0.584236        -0.892521         0.409337
 H        -0.382923         0.896286         0.438508
 H        -0.443203        -0.176212        -1.140069
 H         2.157936         0.952729        -2.023048
 H         2.046883         2.098885        -0.660678
 H         4.466980         2.083909         0.555653
 H         2.155281         0.667398         2.041444
