19
Iteration:  4095charge 0 multiplicity 1
 C         4.240339        -1.725790         0.631366
 C         3.156937        -0.777272         0.342377
 O         2.054131        -1.407769        -0.334727
 C         1.406421        -0.059076        -0.138220
 C        -0.097000         0.055305        -0.065311
 C         2.271017         0.932418        -1.039006
 C         3.429257         0.614822        -0.080097
 O         4.593655         1.325870        -0.012256
 C         2.407307         0.242969         1.046701
 H         3.869293        -2.666846         1.153637
 H         4.681487        -2.046907        -0.355987
 H         4.943684        -1.366326         1.375831
 H        -0.585124        -0.625361         0.714410
 H        -0.357585         1.139216         0.034227
 H        -0.553258        -0.329274        -0.963251
 H         2.204205         0.778564        -2.157926
 H         1.871835         1.932566        -0.681565
 H         4.348997         2.176500         0.451369
 H         2.177737         0.476626         2.064747
