19
Iteration:  3358charge 0 multiplicity 1
 C         4.349908        -1.777177         0.624911
 C         3.166135        -0.914547         0.338164
 O         2.022648        -1.306212        -0.398413
 C         1.377608         0.023302        -0.067020
 C        -0.132661        -0.006345        -0.148585
 C         2.259710         1.024327        -1.031146
 C         3.306775         0.605188         0.041976
 O         4.681175         1.178112        -0.012358
 C         2.311621         0.348381         1.150052
 H         4.287891        -2.566996         1.392732
 H         4.599432        -2.286303        -0.322531
 H         5.066128        -1.005285         1.002892
 H        -0.375015        -0.590942         0.735018
 H        -0.472461         0.944248        -0.166383
 H        -0.489849        -0.533373        -1.081050
 H         2.391178         0.836912        -2.132330
 H         2.047062         2.127908        -1.105123
 H         4.513201         2.141677        -0.294828
 H         2.231695         0.898902         2.110809
