19
Iteration:  4644charge 0 multiplicity 1
 C         4.120599        -1.808856         0.762998
 C         3.178781        -0.797613         0.369670
 O         2.070047        -1.255939        -0.517440
 C         1.405982         0.042451        -0.084426
 C        -0.039248        -0.151562        -0.069508
 C         2.186786         1.040789        -0.896227
 C         3.407316         0.612929        -0.134239
 O         4.586665         1.390129        -0.149243
 C         2.450559         0.238919         1.168524
 H         3.477892        -2.637178         1.041062
 H         4.810943        -2.137049        -0.072860
 H         4.788464        -1.530880         1.629612
 H        -0.419673        -0.909395         0.608876
 H        -0.381245         0.850665         0.275334
 H        -0.242888        -0.430841        -1.153104
 H         2.163103         0.947266        -1.986102
 H         1.967409         2.041107        -0.526881
 H         5.179914         0.599219        -0.320878
 H         2.349016         0.512692         2.222524
