19
Iteration:  2937charge 0 multiplicity 1
 C         4.208269        -1.834890         0.738269
 C         3.215282        -0.825814         0.302432
 O         2.088743        -1.311298        -0.481614
 C         1.414857        -0.037050        -0.106930
 C        -0.099232        -0.078235        -0.030425
 C         2.186098         1.087233        -0.948552
 C         3.383987         0.601098        -0.116038
 O         4.626526         1.285061        -0.076073
 C         2.437344         0.308850         1.054079
 H         3.529634        -2.468240         1.359509
 H         4.550805        -2.520881        -0.053066
 H         4.905340        -1.439008         1.545915
 H        -0.512744        -0.976881         0.512329
 H        -0.374994         0.993125         0.407596
 H        -0.493413        -0.093564        -1.036392
 H         2.052913         1.028697        -2.056703
 H         1.981877         2.127851        -0.681896
 H         4.436904         1.976712         0.549157
 H         2.260180         0.698396         2.109716
