19
Iteration:  4502charge 0 multiplicity 1
 C         4.212994        -1.875983         0.731392
 C         3.260645        -0.893914         0.181361
 O         2.042197        -1.252966        -0.401579
 C         1.410743         0.018676        -0.084299
 C        -0.141902        -0.128104        -0.117096
 C         2.165731         1.078197        -0.927993
 C         3.397242         0.635782        -0.069350
 O         4.616764         1.329281         0.030918
 C         2.463290         0.348896         1.075402
 H         3.644936        -2.531970         1.341775
 H         4.883960        -2.410275        -0.080737
 H         4.911781        -1.282258         1.409916
 H        -0.521885        -0.545318         0.779050
 H        -0.691161         0.858437        -0.240451
 H        -0.475116        -0.813125        -1.003351
 H         2.005349         0.815426        -1.994470
 H         1.878494         2.089204        -0.633653
 H         4.992466         1.514170        -0.884098
 H         2.337683         0.452626         2.225768
