19
Iteration:  4572
 C         4.397495        -1.759710         0.613241
 C         3.197718        -0.866632         0.291639
 O         2.031565        -1.463117        -0.407978
 C         1.353566         0.106034        -0.110447
 C        -0.122157         0.118248        -0.042743
 C         2.231867         0.975299        -1.091869
 C         3.320890         0.703833        -0.078701
 O         4.476956         1.301350         0.071106
 C         2.467424         0.225408         1.089983
 H         4.092707        -2.490821         1.440590
 H         4.645926        -2.289104        -0.233141
 H         5.318088        -1.251453         0.952111
 H        -0.305027        -0.850625         0.611879
 H        -0.362524         0.947745         0.627090
 H        -0.593215         0.063125        -0.972280
 H         2.454758         0.491081        -2.075434
 H         1.779856         2.012775        -1.169145
 H         5.198942         0.861990         0.601094
 H         2.194822         0.630949         2.010486
