19
Iteration:  3435charge 0 multiplicity 1
 C         4.189749        -1.799951         0.737118
 C         3.149333        -0.910917         0.373812
 O         2.042139        -1.358609        -0.438429
 C         1.408627         0.110223        -0.150505
 C        -0.045792        -0.028049         0.030523
 C         2.295034         1.033395        -1.071200
 C         3.396274         0.675990        -0.141205
 O         4.599388         1.279704        -0.014205
 C         2.390614         0.209427         1.018194
 H         3.779303        -2.575771         1.439690
 H         4.807963        -2.235988        -0.080046
 H         4.870841        -1.185858         1.323012
 H        -0.464447        -0.674559         0.811574
 H        -0.329380         0.965694         0.144945
 H        -0.419939        -0.412466        -0.999317
 H         2.312043         0.856268        -2.188167
 H         1.869567         2.067609        -0.778280
 H         4.241996         2.123674         0.299758
 H         2.395386         0.412280         2.160570
