19
Iteration:  3167charge 0 multiplicity 1
 C         4.297982        -1.663641         0.674796
 C         3.190398        -0.846703         0.280843
 O         2.059684        -1.317265        -0.364778
 C         1.404516        -0.050304        -0.109151
 C        -0.134676         0.047226        -0.115669
 C         2.190407         0.913389        -0.990799
 C         3.347583         0.638665        -0.038640
 O         4.652121         1.173386        -0.004175
 C         2.397497         0.292025         1.041448
 H         4.235949        -2.484505         1.441560
 H         4.505251        -2.217593        -0.298387
 H         5.199307        -1.169164         0.857115
 H        -0.583518        -0.381939         0.779784
 H        -0.478458         1.197094        -0.081867
 H        -0.685182        -0.117140        -1.026604
 H         2.254348         0.685379        -2.141435
 H         1.676427         1.931928        -0.827581
 H         4.671755         1.835727         0.667283
 H         2.225936         0.609391         2.077939
