19
Iteration:  2269
 C         4.260814        -1.794004         0.661716
 C         3.181995        -0.815607         0.372358
 O         2.069025        -1.225604        -0.458834
 C         1.431055         0.034364        -0.150463
 C        -0.123813        -0.012072        -0.054546
 C         2.254299         0.944115        -0.984991
 C         3.359205         0.718639         0.096112
 O         4.633177         1.213942        -0.192059
 C         2.324462         0.147241         1.163039
 H         3.770872        -2.654182         1.148717
 H         4.861593        -2.209680        -0.151512
 H         4.904900        -1.341616         1.449663
 H        -0.540146        -0.739820         0.762696
 H        -0.516900         0.939661         0.227125
 H        -0.508173        -0.132857        -1.076091
 H         2.354833         0.564824        -1.957585
 H         2.014510         2.012193        -1.062440
 H         4.703707         2.143512         0.066622
 H         2.196850         0.495112         2.221429
