19
Iteration:  1967
 C         4.379823        -1.798638         0.531937
 C         3.176753        -0.844737         0.242102
 O         1.938324        -1.306320        -0.283537
 C         1.401316         0.042855        -0.064632
 C        -0.088803        -0.009777        -0.171825
 C         2.189711         0.959767        -0.998918
 C         3.356087         0.678684        -0.011917
 O         4.628791         1.182664         0.050541
 C         2.446116         0.321385         1.105445
 H         4.084184        -2.619995         1.342771
 H         4.693508        -2.281862        -0.426912
 H         5.160025        -1.077665         0.781094
 H        -0.588592        -0.664988         0.725765
 H        -0.466812         1.029187        -0.000633
 H        -0.332683        -0.253996        -1.215840
 H         2.372860         0.673004        -2.094452
 H         1.645311         1.881692        -1.130660
 H         4.484261         1.986339         0.584769
 H         2.272971         0.671481         2.042142
