19
Iteration:  2555charge 0 multiplicity 1
 C         4.104019        -1.850695         0.718031
 C         3.222633        -0.819977         0.393744
 O         2.170358        -1.303389        -0.592208
 C         1.381052         0.047254        -0.121489
 C        -0.073109        -0.076627         0.008350
 C         2.222959         1.025054        -0.861865
 C         3.388799         0.698149        -0.045434
 O         4.607648         1.258700        -0.158931
 C         2.384645         0.255955         1.110814
 H         3.727610        -2.370064         1.641692
 H         4.147415        -2.557998        -0.119484
 H         5.108294        -1.479125         1.000223
 H        -0.538691        -0.931602         0.689395
 H        -0.660548         0.866472         0.251242
 H        -0.462127        -0.348296        -0.933884
 H         2.367179         0.809271        -1.993264
 H         2.223943         2.212147        -0.911854
 H         4.610739         2.115912         0.247422
 H         2.194409         0.612171         2.169580
