19
Iteration:  1155
 C         4.205010        -1.865624         0.679433
 C         3.235470        -0.834875         0.302052
 O         2.082224        -1.268769        -0.490803
 C         1.378049         0.075280        -0.145715
 C        -0.107178        -0.066813         0.000591
 C         2.238797         1.083394        -1.037995
 C         3.383029         0.697374        -0.071938
 O         4.615340         1.276822         0.066570
 C         2.411545         0.169140         1.086666
 H         3.776202        -2.671827         1.322495
 H         4.342077        -2.456835        -0.306163
 H         5.109580        -1.514903         1.141301
 H        -0.179619        -0.857982         0.771126
 H        -0.668373         0.795146         0.287235
 H        -0.535112        -0.349143        -0.965344
 H         2.360298         0.869216        -2.095331
 H         1.765024         2.058319        -0.822934
 H         4.382955         2.205364        -0.059108
 H         2.286925         0.267399         2.214702
