19
Iteration:   714charge 0 multiplicity 1
 C         4.345319        -1.842633         0.628496
 C         3.095090        -0.901373         0.297349
 O         2.069080        -1.299002        -0.500901
 C         1.480588         0.007333        -0.080042
 C        -0.086248         0.040341        -0.049577
 C         2.151221         0.946565        -1.002266
 C         3.366539         0.689209         0.040624
 O         4.618834         1.337609        -0.016412
 C         2.378940         0.214229         1.076303
 H         4.099112        -2.952222         1.049012
 H         4.782063        -1.954214        -0.357658
 H         5.005561        -1.353846         1.347656
 H        -0.685164        -0.872058         0.262325
 H        -0.462903         0.723389         0.820450
 H        -0.429189         0.340569        -1.057348
 H         2.234608         0.580503        -2.088615
 H         1.802885         1.965608        -0.707894
 H         4.447941         2.241004         0.354849
 H         2.156400         0.382768         2.177416
