19
Iteration:  1065
 C         4.206892        -1.663719         0.584530
 C         3.120415        -0.788857         0.281878
 O         2.118523        -1.326872        -0.480975
 C         1.403224        -0.016625        -0.106256
 C        -0.155828        -0.022892        -0.045904
 C         2.213646         1.002985        -1.005511
 C         3.385070         0.668636        -0.025737
 O         4.669298         1.199468         0.047704
 C         2.422013         0.178725         1.110391
 H         3.953273        -2.609467         1.013483
 H         4.684520        -1.945576        -0.399557
 H         4.854277        -1.189259         1.364427
 H        -0.476332        -0.879214         0.588886
 H        -0.338632         0.916260         0.454235
 H        -0.732746         0.045076        -1.000839
 H         2.385916         0.571617        -2.023362
 H         1.816418         1.981830        -0.921799
 H         4.651569         1.999484         0.576381
 H         2.187969         0.408066         2.214402
