19
Iteration:   154charge 0 multiplicity 1
 C         4.132930        -1.841354         0.734822
 C         3.160585        -0.834880         0.177425
 O         1.951534        -1.291893        -0.546701
 C         1.434082        -0.032255        -0.073169
 C        -0.091815        -0.146520         0.027330
 C         2.260273         1.085360        -0.983813
 C         3.458570         0.657909        -0.133575
 O         4.607843         1.363670         0.172666
 C         2.504979         0.250135         1.013787
 H         3.706462        -2.684819         1.228765
 H         4.666126        -2.140118        -0.111738
 H         4.790255        -1.197480         1.308162
 H        -0.429025        -0.962371         0.608735
 H        -0.604638         0.668927         0.392803
 H        -0.372281        -0.254148        -1.013332
 H         2.178164         1.156317        -2.041093
 H         2.008876         2.060360        -0.526026
 H         5.174393         1.501335        -0.597271
 H         2.346196         0.608996         2.041408
