19
Iteration:  3297charge 0 multiplicity 1
 C         4.229171        -1.833727         0.867312
 C         3.215591        -0.878069         0.338610
 O         2.003204        -1.309517        -0.482720
 C         1.407237         0.007400        -0.142197
 C        -0.077334         0.059959        -0.002897
 C         2.228330         0.988508        -1.102975
 C         3.365437         0.634456        -0.109590
 O         4.612001         1.338726        -0.060703
 C         2.425518         0.211508         0.974601
 H         3.851866        -2.756428         1.420556
 H         4.909075        -2.152000         0.028074
 H         4.944302        -1.282303         1.426074
 H        -0.292091        -0.909519         0.510474
 H        -0.527293         0.835686         0.777798
 H        -0.752957        -0.055947        -0.871244
 H         2.297670         0.843011        -2.197225
 H         1.978245         1.966739        -0.710401
 H         4.541448         1.836825         0.804032
 H         2.410414         0.491292         2.075381
