19
Iteration:  3258
 C         4.152945        -1.896287         0.792966
 C         3.167085        -0.799065         0.214096
 O         2.042171        -1.320250        -0.423426
 C         1.423116        -0.001544        -0.154885
 C        -0.062716        -0.057915        -0.012480
 C         2.236610         0.991533        -1.074903
 C         3.379499         0.724914        -0.032412
 O         4.657124         1.300465        -0.075247
 C         2.414998         0.315212         1.119683
 H         3.552483        -2.617536         1.336638
 H         4.603134        -2.341356        -0.090752
 H         4.962476        -1.479906         1.513119
 H        -0.274256        -0.859328         0.699933
 H        -0.434000         0.847288         0.311655
 H        -0.332562        -0.168967        -1.052886
 H         2.429557         0.758503        -2.156872
 H         1.502936         1.864776        -0.941085
 H         4.523230         2.174718         0.380532
 H         2.474947         0.382389         2.204954
