19
Iteration:   983
 C         4.234294        -1.923469         0.618784
 C         3.236874        -0.873990         0.328910
 O         2.125413        -1.225850        -0.570005
 C         1.364060        -0.031086        -0.110949
 C        -0.116222        -0.044669        -0.081531
 C         2.141802         1.018851        -0.922537
 C         3.330299         0.809422         0.082772
 O         4.630808         1.307372        -0.054737
 C         2.416066         0.134801         1.170862
 H         3.783110        -2.521813         1.461145
 H         4.587738        -2.560723        -0.209985
 H         5.113533        -1.353942         0.833324
 H        -0.594891        -0.258972         0.952128
 H        -0.400851         1.065477        -0.376153
 H        -0.421402        -0.739274        -0.909083
 H         2.301975         0.843234        -1.995398
 H         1.739646         2.092087        -1.025330
 H         4.799595         2.173768         0.385536
 H         2.439470         0.440830         2.298889
