19
Iteration:  1378
 C         4.224429        -1.901039         0.635659
 C         3.151321        -0.847101         0.295323
 O         2.063609        -1.292197        -0.482502
 C         1.454879        -0.006999        -0.148838
 C        -0.062602        -0.024887        -0.007012
 C         2.255002         1.013501        -0.965552
 C         3.371721         0.669112        -0.015936
 O         4.550621         1.386178        -0.033042
 C         2.383683         0.176636         1.073183
 H         3.842483        -2.542472         1.518045
 H         4.428632        -2.412445        -0.316962
 H         5.230178        -1.453744         1.047490
 H        -0.627350        -0.332350         0.917480
 H        -0.103763         1.065617        -0.057560
 H        -0.529431        -0.493266        -0.899434
 H         2.354108         0.939893        -2.070069
 H         1.908677         2.034822        -0.819410
 H         4.674391         1.777330         0.859922
 H         2.383143         0.526258         2.117623
