19
Iteration:  2041
 C         4.142892        -1.762155         0.768873
 C         3.121719        -0.866277         0.214523
 O         2.052763        -1.348048        -0.511807
 C         1.399856        -0.015947        -0.056599
 C        -0.145272        -0.053868         0.026404
 C         2.211965         1.048244        -1.007900
 C         3.434902         0.688805        -0.133415
 O         4.638290         1.251436         0.056558
 C         2.576202         0.254826         1.009417
 H         3.621917        -2.533410         1.285386
 H         4.748795        -2.295269         0.045154
 H         4.801706        -1.062294         1.254207
 H        -0.580813        -0.847553         0.757514
 H        -0.480713         0.888189         0.358712
 H        -0.537114        -0.274188        -0.917512
 H         2.106625         0.893169        -2.099934
 H         2.102014         2.143811        -0.858312
 H         4.452265         2.195424         0.053032
 H         2.537921         0.472232         2.004255
