19
Iteration:  2862
 C         4.362468        -1.849676         0.660495
 C         3.236304        -0.846375         0.293852
 O         1.951645        -1.346345        -0.369630
 C         1.380154        -0.017405        -0.102144
 C        -0.109072        -0.036831        -0.069728
 C         2.124177         1.078451        -1.035818
 C         3.400268         0.734970        -0.126551
 O         4.667655         1.200575         0.104768
 C         2.353938         0.284809         1.017502
 H         4.076518        -2.794549         1.137649
 H         4.876382        -2.029878        -0.289297
 H         5.037212        -1.359165         1.389436
 H        -0.508478        -0.577519         0.797460
 H        -0.396675         1.094877        -0.079373
 H        -0.500736        -0.335414        -1.032847
 H         2.145928         0.943465        -2.088102
 H         1.791755         2.085860        -0.847526
 H         4.791500         2.170356        -0.040171
 H         2.527003         0.515203         2.102105
