19
Iteration:   398
 C         4.409287        -1.824509         0.482381
 C         3.160201        -0.815219         0.321855
 O         2.008964        -1.264322        -0.390809
 C         1.371635        -0.008736        -0.060446
 C        -0.164222         0.024538        -0.125477
 C         2.146336         0.956561        -1.056500
 C         3.352889         0.682762         0.019162
 O         4.659819         1.232671         0.126303
 C         2.467390         0.227660         1.098682
 H         4.093562        -2.660366         1.300394
 H         4.733035        -2.206627        -0.513952
 H         5.159953        -1.102031         0.815406
 H        -0.726669        -0.757752         0.456058
 H        -0.434469         1.112282        -0.014629
 H        -0.424067        -0.153314        -1.161436
 H         2.206977         0.549711        -2.107149
 H         1.601256         1.892490        -0.990359
 H         4.532655         2.063003         0.644149
 H         2.368957         0.414202         2.114159
