19
Iteration:  2063charge 0 multiplicity 1
 C         4.187591        -1.839373         0.827654
 C         3.247557        -0.780671         0.232759
 O         1.971971        -1.231895        -0.477571
 C         1.419223         0.015267        -0.130731
 C        -0.085540        -0.098281        -0.018678
 C         2.179026         1.055705        -1.002786
 C         3.448249         0.699289        -0.074010
 O         4.686980         1.222246        -0.047838
 C         2.397967         0.195592         1.059329
 H         3.563957        -2.656919         1.155725
 H         4.754755        -2.356351         0.045956
 H         4.978451        -1.410885         1.454486
 H        -0.241820        -0.948191         0.771708
 H        -0.527997         0.697617         0.515047
 H        -0.700740        -0.326797        -0.819345
 H         2.146380         1.009978        -2.121287
 H         1.840121         2.116098        -0.835198
 H         4.533477         2.207874        -0.085903
 H         2.318225         0.416626         2.054247
