19
Iteration:   472
 C         4.188448        -1.814094         0.742502
 C         3.246116        -0.753563         0.179575
 O         2.038188        -1.218781        -0.580955
 C         1.354388        -0.020715        -0.068606
 C        -0.122390        -0.118136         0.049998
 C         2.286165         1.055922        -0.971996
 C         3.354237         0.674713         0.006819
 O         4.643386         1.267170        -0.035137
 C         2.409026         0.157642         1.057288
 H         3.679953        -2.554506         1.352603
 H         4.685182        -2.255189        -0.050220
 H         4.826697        -1.210374         1.349051
 H        -0.430740        -0.967609         0.703736
 H        -0.452952         0.892698         0.290378
 H        -0.545469        -0.223135        -1.013641
 H         2.545526         0.820160        -1.997413
 H         1.968736         2.095043        -0.688016
 H         4.607729         2.144101         0.335530
 H         2.351497        -0.129790         2.076917
