19
Iteration:  3454
 C         4.197236        -1.815555         0.829916
 C         3.161835        -0.877639         0.311835
 O         1.967878        -1.354746        -0.536014
 C         1.441480        -0.049000        -0.253205
 C        -0.055223         0.022029         0.063698
 C         2.267759         0.962569        -1.015744
 C         3.376752         0.658397        -0.056333
 O         4.671039         1.354159        -0.030597
 C         2.387343         0.255835         1.034286
 H         3.959843        -2.658763         1.403883
 H         4.660826        -2.156290        -0.079786
 H         4.897198        -1.156000         1.422971
 H        -0.202411        -0.882607         0.735394
 H        -0.291354         1.019323         0.605007
 H        -0.804484        -0.144479        -0.788456
 H         2.318633         0.785956        -2.072044
 H         2.059734         2.008628        -0.931947
 H         4.484328         2.313176         0.147945
 H         2.101771         0.559361         2.097254
