19
Iteration:  4526
 C         4.232783        -1.864732         0.648055
 C         3.192504        -0.827080         0.376484
 O         2.017071        -1.287232        -0.421362
 C         1.414087         0.042447        -0.126797
 C        -0.053569        -0.070212        -0.053622
 C         2.247563         1.006934        -1.025752
 C         3.313243         0.713851        -0.069876
 O         4.551453         1.390970         0.041555
 C         2.444274         0.225553         1.091010
 H         3.756979        -2.640966         1.243194
 H         4.392504        -2.271263        -0.338824
 H         5.233349        -1.514960         1.047481
 H        -0.413417        -0.688866         0.801076
 H        -0.736214         0.811341        -0.078188
 H        -0.229990        -0.681252        -0.927367
 H         2.361931         0.536853        -2.034948
 H         1.956845         2.080110        -0.998823
 H         5.293919         0.917869        -0.395408
 H         2.522272         0.647847         2.149932
