19
Iteration:  2928
 C         4.159680        -1.875192         0.797776
 C         3.207915        -0.828389         0.335381
 O         2.086999        -1.337703        -0.493356
 C         1.393059         0.003618        -0.151305
 C        -0.093301        -0.092441        -0.038448
 C         2.207572         1.110374        -0.950366
 C         3.364383         0.737400        -0.040846
 O         4.654641         1.279041        -0.130518
 C         2.408055         0.219431         1.004390
 H         3.650815        -2.652150         1.424381
 H         4.773036        -2.304568        -0.036078
 H         4.951293        -1.371510         1.379545
 H        -0.313740        -0.854563         0.707820
 H        -0.524140         0.894613         0.512263
 H        -0.667643        -0.104136        -1.022443
 H         2.220405         1.027697        -2.008252
 H         1.748179         2.013859        -0.569629
 H         4.695171         1.994587         0.508645
 H         2.567092         0.558241         2.050891
