19
Iteration:  1580
 C         4.258620        -1.796491         0.612132
 C         3.209372        -0.795449         0.269065
 O         2.042587        -1.283677        -0.337242
 C         1.395506         0.023644        -0.144949
 C        -0.190765        -0.034725        -0.036578
 C         2.209738         1.041421        -1.032515
 C         3.367219         0.730183        -0.083313
 O         4.613855         1.181847         0.108943
 C         2.469291         0.209173         1.036819
 H         4.080447        -2.537575         1.415875
 H         4.369272        -2.592162        -0.252684
 H         5.190698        -1.254092         0.870181
 H        -0.565389        -0.678658         0.695548
 H        -0.556798         0.953260        -0.207746
 H        -0.381828        -0.640148        -0.889454
 H         2.285418         0.702713        -2.036029
 H         1.929330         2.151177        -0.959558
 H         4.610693         2.140023         0.006863
 H         2.637612         0.415949         2.027906
