19
Iteration:  2840
 C         4.253411        -1.690455         0.465435
 C         3.186795        -0.828794         0.357926
 O         1.982153        -1.382162        -0.305656
 C         1.444649         0.005902        -0.122382
 C        -0.093975         0.037220        -0.124977
 C         2.241993         0.922610        -1.039204
 C         3.391197         0.688160        -0.010135
 O         4.611348         1.226570         0.044943
 C         2.427182         0.233994         1.119790
 H         3.913374        -2.491426         1.117961
 H         4.631563        -2.088058        -0.471709
 H         4.959407        -1.231547         1.178427
 H        -0.493977        -0.591146         0.683187
 H        -0.408959         1.149648        -0.034204
 H        -0.513523        -0.293597        -1.063353
 H         2.456629         0.670252        -2.047081
 H         1.769855         1.891150        -1.100394
 H         4.512828         2.109321         0.422112
 H         2.195169         0.497934         2.193146
