19
Iteration:  3882
 C         4.297916        -1.664388         0.694808
 C         3.113682        -0.790078         0.371624
 O         2.098819        -1.388540        -0.390547
 C         1.426597        -0.050484        -0.169353
 C        -0.192918         0.020648        -0.046378
 C         2.222044         0.979938        -1.010835
 C         3.346403         0.652069        -0.086949
 O         4.587979         1.170033        -0.056963
 C         2.487519         0.265819         1.044415
 H         4.030702        -2.640244         1.225012
 H         4.863072        -1.907887        -0.218638
 H         4.828698        -1.096929         1.499320
 H        -0.709423        -0.848662         0.394345
 H        -0.377620         0.956145         0.434838
 H        -0.486784        -0.028330        -1.194304
 H         2.423849         0.979311        -2.150188
 H         1.703064         1.925508        -0.605796
 H         4.784887         1.969112         0.517287
 H         2.268523         0.778278         2.143409
