19
Iteration:  1172
 C         4.178966        -1.892245         0.640212
 C         3.103261        -0.894895         0.356653
 O         2.075031        -1.209073        -0.592244
 C         1.420337        -0.009362        -0.184625
 C        -0.095543        -0.156147         0.080580
 C         2.338139         1.033491        -0.936850
 C         3.458547         0.622761         0.014890
 O         4.603277         1.349134         0.004846
 C         2.318301         0.279506         1.015797
 H         3.795766        -2.543144         1.400012
 H         4.558792        -2.415141        -0.227697
 H         5.141648        -1.331897         0.859305
 H        -0.357697        -0.493083         1.106606
 H        -0.602166         0.867969         0.190604
 H        -0.724627        -0.585342        -0.770879
 H         2.487771         0.940957        -2.079403
 H         2.305666         2.120231        -0.827156
 H         4.394272         2.248432         0.273660
 H         2.216857         0.714508         2.084740
