19
Iteration:  1520
 C         4.158213        -1.908455         0.773100
 C         3.246592        -0.788006         0.206235
 O         2.064096        -1.336989        -0.465377
 C         1.391565        -0.023843        -0.151186
 C        -0.130106        -0.010047        -0.004071
 C         2.215003         1.035107        -0.949102
 C         3.388842         0.654248        -0.124907
 O         4.610605         1.352033        -0.012525
 C         2.499174         0.231186         1.027714
 H         3.485773        -2.625042         1.276734
 H         4.775308        -2.216402         0.009964
 H         4.915685        -1.441287         1.441972
 H        -0.517255        -0.823714         0.622611
 H        -0.568216         0.786635         0.520455
 H        -0.572059         0.079876        -1.003803
 H         2.229456         0.769974        -2.045362
 H         1.845194         2.013689        -0.805397
 H         4.532474         2.097466         0.633328
 H         2.583860         0.399180         2.110185
