19
Iteration:  3312
 C         4.245596        -1.737308         0.771193
 C         3.154479        -0.849141         0.243778
 O         1.982000        -1.410854        -0.432378
 C         1.419601        -0.015518        -0.168292
 C        -0.064861         0.010475         0.020276
 C         2.212968         1.009056        -0.997406
 C         3.413323         0.723404        -0.120911
 O         4.606855         1.239478         0.021339
 C         2.478018         0.247272         0.995535
 H         3.712824        -2.460074         1.329265
 H         4.759906        -2.364901         0.068780
 H         4.898104        -1.284226         1.583211
 H        -0.563217        -0.858721         0.489977
 H        -0.301609         1.009319         0.421173
 H        -0.356986         0.179026        -0.995114
 H         2.305400         0.706050        -2.048902
 H         1.737934         1.973846        -1.168906
 H         4.603437         2.146061         0.466217
 H         2.206507         0.593104         1.954127
