19
Iteration:   157
 C         4.122396        -1.832947         0.717994
 C         3.181978        -0.784573         0.154581
 O         1.977255        -1.293310        -0.531602
 C         1.407169        -0.031247        -0.062175
 C        -0.094292        -0.130698         0.015269
 C         2.234007         1.084727        -1.008043
 C         3.456154         0.642676        -0.121708
 O         4.628725         1.345904         0.174299
 C         2.482079         0.231211         1.047202
 H         3.675571        -2.703024         1.287503
 H         4.726240        -2.166047        -0.086461
 H         4.866302        -1.182053         1.312058
 H        -0.440052        -1.008510         0.562905
 H        -0.575219         0.734725         0.431727
 H        -0.342376        -0.305371        -1.096498
 H         2.078718         1.090165        -2.119787
 H         2.026432         2.074037        -0.520018
 H         5.178429         1.499345        -0.650289
 H         2.366197         0.542607         2.138254
