19
Iteration:  2855
 C         4.367424        -1.818914         0.643957
 C         3.163369        -0.804783         0.242509
 O         1.948697        -1.356290        -0.307580
 C         1.371101        -0.064015        -0.103176
 C        -0.061425         0.030844        -0.085739
 C         2.183955         1.032586        -1.030009
 C         3.300935         0.739352        -0.098385
 O         4.707039         1.217885         0.099174
 C         2.391737         0.256794         1.020062
 H         3.928385        -2.775561         0.984594
 H         4.857781        -2.027354        -0.328349
 H         5.189419        -1.388857         1.150696
 H        -0.419939        -0.520898         0.739130
 H        -0.482795         0.940879        -0.007206
 H        -0.349403        -0.404398        -1.123375
 H         2.282699         0.742167        -2.130569
 H         1.754629         2.043265        -0.723218
 H         4.682182         2.177903         0.107806
 H         2.190167         0.524099         2.060293
