19
Iteration:  4067charge 0 multiplicity 1
 C         4.345397        -1.753127         0.657289
 C         3.128151        -0.868761         0.363478
 O         2.003846        -1.256775        -0.401038
 C         1.425593         0.017434        -0.116537
 C        -0.075403         0.019772        -0.021377
 C         2.289035         0.867202        -1.134461
 C         3.334058         0.731088         0.011589
 O         4.565220         1.276552        -0.014017
 C         2.416490         0.164153         1.094702
 H         4.224418        -2.772013         1.030232
 H         5.046903        -2.021234        -0.145432
 H         4.970529        -1.277400         1.426953
 H        -0.597102        -0.799387         0.427176
 H        -0.319613         0.991621         0.364452
 H        -0.661079         0.157614        -1.008818
 H         2.330543         0.196221        -1.981468
 H         1.958839         1.801922        -1.468161
 H         4.437879         2.266561         0.072644
 H         1.875110         0.569437         2.129162
