19
Iteration:  1878charge 0 multiplicity 1
 C         4.165677        -1.801514         0.851514
 C         3.221614        -0.825870         0.236286
 O         2.023580        -1.313835        -0.619620
 C         1.436108         0.014844        -0.069803
 C        -0.102459        -0.017038         0.038675
 C         2.153454         0.985147        -0.972832
 C         3.433873         0.620827        -0.115359
 O         4.648324         1.303323        -0.017981
 C         2.476073         0.229269         1.017188
 H         3.573169        -2.719881         1.184976
 H         4.826000        -2.247895         0.041919
 H         4.877712        -1.229925         1.478918
 H        -0.487288        -0.855434         0.789872
 H        -0.373007         0.995125         0.382746
 H        -0.495187        -0.173770        -0.973786
 H         2.056454         0.838111        -2.060300
 H         1.784701         1.968737        -0.596392
 H         4.512659         2.097287         0.533124
 H         2.299981         0.589266         2.037357
