19
Iteration:  1034
 C         4.301993        -1.867051         0.683452
 C         3.243368        -0.938576         0.234475
 O         1.929566        -1.233447        -0.503962
 C         1.406633         0.006570        -0.146757
 C        -0.078758        -0.104528        -0.011311
 C         2.159035         1.061201        -0.979719
 C         3.375218         0.702987        -0.106667
 O         4.575436         1.253369         0.192610
 C         2.526471         0.282538         0.978870
 H         3.884754        -2.666398         1.226595
 H         4.780895        -2.317366        -0.282311
 H         5.157074        -1.351769         1.192213
 H        -0.256856        -0.464499         0.998741
 H        -0.430685         0.845178        -0.010104
 H        -0.484808        -0.552448        -0.911657
 H         2.125658         0.907019        -2.077876
 H         1.800253         2.055760        -0.753702
 H         4.529014         2.245028         0.182404
 H         2.336276         0.823069         2.047412
