19
Iteration:   552charge 0 multiplicity 1
 C         4.237685        -1.730350         0.453719
 C         3.138480        -0.868015         0.323219
 O         2.017722        -1.282156        -0.396070
 C         1.424431         0.012836        -0.031625
 C        -0.031114        -0.031586        -0.092740
 C         2.254973         0.926603        -1.001748
 C         3.341286         0.752694        -0.017413
 O         4.668171         1.267881         0.057121
 C         2.323474         0.210606         1.119771
 H         4.106378        -2.709579         1.044105
 H         4.630188        -2.011521        -0.525712
 H         5.075448        -1.237982         0.936250
 H        -0.544270        -0.709609         0.633916
 H        -0.407091         0.974434         0.366571
 H        -0.147853        -0.180432        -1.160873
 H         2.451478         0.304167        -1.963530
 H         1.882526         1.936658        -1.130114
 H         4.502740         2.106389         0.488346
 H         1.937113         0.048973         2.159207
