19
Iteration:  4285
 C         4.289286        -1.740618         0.757198
 C         3.226739        -0.761780         0.275860
 O         1.983562        -1.347544        -0.419040
 C         1.297768         0.054945        -0.119870
 C        -0.123822        -0.077245        -0.055749
 C         2.228742         0.972319        -1.029336
 C         3.337574         0.724417        -0.089070
 O         4.668953         1.264436        -0.028961
 C         2.433606         0.211204         1.051068
 H         3.812359        -2.663943         0.971279
 H         4.852962        -1.953531        -0.109081
 H         4.969351        -1.713177         1.637400
 H        -0.375971        -0.563820         0.817676
 H        -0.637025         0.886234         0.006171
 H        -0.503422        -0.638603        -0.932548
 H         2.532141         0.695268        -2.051496
 H         1.917122         2.004505        -1.020009
 H         4.828773         1.717616         0.783930
 H         2.612117         0.527370         2.035946
