19
Iteration:  4553charge 0 multiplicity 1
 C         4.294872        -1.801498         0.553854
 C         3.197642        -0.826881         0.372896
 O         2.012463        -1.301430        -0.344257
 C         1.364096        -0.069435        -0.196967
 C        -0.082292        -0.006884         0.030410
 C         2.273078         0.891241        -1.079583
 C         3.342772         0.678891        -0.101987
 O         4.603159         1.413707         0.082717
 C         2.320669         0.274879         1.033878
 H         4.049467        -2.591402         1.293214
 H         4.522711        -2.309806        -0.417816
 H         5.157717        -1.232465         0.782063
 H        -0.654488        -0.617715         0.726544
 H        -0.316077         1.006908         0.345537
 H        -0.605441        -0.136218        -0.974704
 H         2.538563         0.712739        -2.137653
 H         2.064596         1.932113        -0.824074
 H         5.354742         0.884468         0.423375
 H         2.232635         0.442664         2.079311
