19
Iteration:  2433charge 0 multiplicity 1
 C         4.252959        -1.764596         0.696932
 C         3.154232        -0.801909         0.349355
 O         1.988751        -1.338405        -0.426439
 C         1.352088         0.010870        -0.131629
 C        -0.068326         0.006772        -0.048437
 C         2.210192         1.043840        -1.006759
 C         3.415112         0.641382        -0.053254
 O         4.716620         1.232028        -0.084050
 C         2.358923         0.190105         1.116414
 H         3.850783        -2.655941         1.222068
 H         4.717265        -2.178159        -0.216823
 H         4.984218        -1.284393         1.279848
 H        -0.340283        -0.885531         0.587562
 H        -0.595744         0.866272         0.321509
 H        -0.383851        -0.229849        -1.051112
 H         2.307138         1.000785        -2.098040
 H         1.904936         2.104708        -0.770776
 H         4.484674         2.167253         0.135270
 H         2.415554         0.438718         2.142530
