19
Iteration:  2502
 C         4.273068        -1.709927         0.652446
 C         3.147806        -0.891103         0.142770
 O         1.932601        -1.412170        -0.339921
 C         1.374378         0.027166        -0.078695
 C        -0.103404         0.013213        -0.043937
 C         2.214700         0.955619        -1.002472
 C         3.408609         0.580189        -0.129629
 O         4.668831         1.234343         0.117821
 C         2.479101         0.391331         1.015315
 H         4.084507        -2.744912         0.895315
 H         5.030651        -1.907967        -0.125005
 H         4.867462        -1.068557         1.368370
 H        -0.648007        -0.577192         0.796721
 H        -0.618542         1.071705        -0.017599
 H        -0.477612        -0.199373        -1.055972
 H         2.378741         1.000900        -2.059692
 H         1.777780         1.896137        -0.646326
 H         4.404871         2.150503         0.090622
 H         2.775785         0.379830         2.099001
