19
Iteration:  1050charge 0 multiplicity 1
 C         4.332840        -1.833301         0.631234
 C         3.242023        -0.748716         0.227479
 O         2.046988        -1.295244        -0.460559
 C         1.357959         0.031814        -0.096399
 C        -0.128769        -0.018524         0.004890
 C         2.135730         1.023614        -1.059250
 C         3.362023         0.683160        -0.132286
 O         4.682216         1.198008         0.178346
 C         2.380449         0.213913         1.034731
 H         3.700001        -2.613476         1.171158
 H         4.903957        -2.203191        -0.172335
 H         5.075475        -1.378211         1.285952
 H        -0.526799        -0.816997         0.647677
 H        -0.689421         0.979418         0.318438
 H        -0.495475        -0.449799        -0.957409
 H         2.135894         0.823610        -2.142444
 H         1.806666         2.108973        -0.929567
 H         4.547703         2.143569         0.389321
 H         2.424110         0.301052         2.038187
