19
Iteration:  3441charge 0 multiplicity 1
 C         4.189564        -1.778074         0.742250
 C         3.073784        -0.954945         0.362585
 O         2.053317        -1.326630        -0.445791
 C         1.412261         0.051642        -0.153499
 C        -0.028070        -0.003722         0.040676
 C         2.287226         1.019571        -1.053139
 C         3.436624         0.656804        -0.099567
 O         4.611067         1.318914        -0.027760
 C         2.397006         0.182431         0.960508
 H         3.712164        -2.500877         1.395934
 H         4.834833        -2.236556         0.013034
 H         4.913718        -1.181527         1.367903
 H        -0.325432        -0.716386         0.846379
 H        -0.508405         1.030954         0.417255
 H        -0.464505        -0.285055        -0.882039
 H         2.501140         0.832540        -2.086608
 H         1.758428         1.893320        -0.758779
 H         4.395109         2.231094         0.212713
 H         2.067521         0.530549         1.903290
