19
Iteration:   583charge 0 multiplicity 1
 C         4.426355        -1.763184         0.485382
 C         3.205450        -0.852592         0.323018
 O         2.063721        -1.420665        -0.383774
 C         1.382166         0.011162        -0.127232
 C        -0.231877         0.091187        -0.125470
 C         2.210542         0.984565        -0.927181
 C         3.327462         0.611725        -0.079098
 O         4.543132         1.194114         0.191141
 C         2.475545         0.328052         1.037639
 H         4.292736        -2.661289         1.188149
 H         4.642743        -2.129777        -0.468052
 H         5.344975        -1.286674         0.658543
 H        -0.762109        -0.459803         0.737188
 H        -0.415201         1.237776        -0.287086
 H        -0.713331        -0.437365        -0.967253
 H         2.250427         1.125470        -2.046059
 H         2.009828         2.047787        -0.692112
 H         4.190604         2.111358         0.373770
 H         2.632382         0.697613         2.008081
