19
Iteration:   788charge 0 multiplicity 1
 C         4.274713        -1.798512         0.523043
 C         3.179744        -0.810195         0.246965
 O         2.047840        -1.203959        -0.445549
 C         1.401433         0.083706        -0.102084
 C        -0.112186        -0.136066        -0.069399
 C         2.249250         1.057977        -1.015206
 C         3.344059         0.641221        -0.038760
 O         4.565481         1.180890         0.120674
 C         2.412747         0.235649         1.130494
 H         4.146881        -2.347409         1.537818
 H         4.480415        -2.426488        -0.373447
 H         5.190170        -1.232006         0.723306
 H        -0.470205        -0.503064         0.934222
 H        -0.744172         0.753839        -0.239431
 H        -0.318462        -1.007093        -0.656185
 H         2.427716         0.881873        -2.089566
 H         2.039164         2.129303        -0.744782
 H         4.507670         2.148460         0.241003
 H         2.657979         0.251866         2.222836
