19
Iteration:   604
 C         4.351927        -1.714807         0.557367
 C         3.192312        -0.902330         0.273516
 O         1.938170        -1.263825        -0.413537
 C         1.412008         0.005010        -0.073575
 C        -0.075506         0.037291        -0.100318
 C         2.170115         1.017872        -0.980784
 C         3.370369         0.641514        -0.124185
 O         4.669105         1.273541         0.148931
 C         2.387117         0.059574         1.080560
 H         4.160597        -2.435864         1.426816
 H         4.736236        -2.246944        -0.274607
 H         5.182160        -1.101581         0.759881
 H        -0.565734        -0.446457         0.817680
 H        -0.422180         1.101101        -0.374028
 H        -0.350238        -0.708265        -0.862728
 H         1.940549         0.866569        -2.065186
 H         1.873222         2.088360        -0.862202
 H         4.414829         2.138584         0.475997
 H         2.345622         0.418355         2.063562
