19
Iteration:  3349charge 0 multiplicity 1
 C         4.371210        -1.746211         0.658068
 C         3.156160        -0.828727         0.384121
 O         2.022096        -1.305621        -0.437077
 C         1.390024         0.065725        -0.070881
 C        -0.163256        -0.010785        -0.117824
 C         2.241070         1.002805        -1.030088
 C         3.347041         0.587469        -0.036608
 O         4.678690         1.172634         0.032321
 C         2.380106         0.290445         1.078805
 H         3.955669        -2.493666         1.406910
 H         4.667976        -2.194296        -0.336922
 H         5.274967        -1.253067         0.993065
 H        -0.666368        -0.524760         0.694856
 H        -0.536615         0.955923         0.042950
 H        -0.529882        -0.352072        -1.128277
 H         2.371416         0.418792        -1.951472
 H         1.819736         2.031842        -0.955526
 H         4.419377         2.084232        -0.314653
 H         2.079071         0.685112         2.102319
