19
Iteration:   614
 C         4.330886        -1.735741         0.622739
 C         3.136922        -0.796508         0.222679
 O         1.909350        -1.300005        -0.533166
 C         1.422500         0.035389        -0.106407
 C        -0.020199        -0.032587        -0.072489
 C         2.162772         0.998218        -0.970290
 C         3.351071         0.692076         0.029128
 O         4.653632         1.255738         0.057868
 C         2.452064         0.111166         1.131838
 H         4.094642        -2.480730         1.469362
 H         4.557252        -2.336178        -0.264344
 H         5.125334        -1.087657         0.940051
 H        -0.425917        -0.375931         0.934524
 H        -0.553414         0.950546        -0.291717
 H        -0.373099        -0.626468        -0.923670
 H         2.413918         0.647475        -1.994635
 H         1.850754         2.060687        -0.781820
 H         4.541938         2.095363         0.509748
 H         2.456961         0.159701         2.175528
