19
Iteration:  3714
 C         4.283801        -1.665363         0.655005
 C         3.174165        -0.749469         0.295745
 O         2.125718        -1.424267        -0.420402
 C         1.458637         0.022418        -0.036324
 C        -0.104422         0.005442        -0.082494
 C         2.176792         0.980841        -0.984248
 C         3.353605         0.690595        -0.064856
 O         4.668333         1.129872        -0.018547
 C         2.281536         0.330888         1.097863
 H         3.806663        -2.427872         1.260544
 H         4.624768        -2.186120        -0.226437
 H         5.099239        -1.247635         1.332349
 H        -0.568224        -0.836423         0.560876
 H        -0.605568         1.011558         0.150049
 H        -0.449221        -0.326644        -1.011649
 H         2.120306         0.591684        -2.051207
 H         1.874234         2.053935        -0.997195
 H         4.588320         2.100246        -0.258697
 H         2.055043         0.153207         2.157462
