19
Iteration:   944
 C         4.336468        -1.721674         0.556875
 C         3.177397        -0.866866         0.184030
 O         1.890067        -1.278730        -0.331999
 C         1.372245         0.017508        -0.130724
 C        -0.152296        -0.142474        -0.118236
 C         2.238532         1.082664        -0.920618
 C         3.404667         0.657376        -0.036434
 O         4.711725         1.246045         0.086175
 C         2.409159         0.184728         1.043582
 H         4.111369        -2.531585         1.308555
 H         4.759354        -2.244496        -0.279226
 H         5.103079        -1.112554         1.106635
 H        -0.548601        -0.880880         0.502883
 H        -0.613790         0.795400         0.145739
 H        -0.415674        -0.168902        -1.168526
 H         2.228410         0.977549        -2.018921
 H         2.102739         2.070693        -0.538913
 H         4.558426         2.173699         0.369334
 H         2.380972         0.467953         2.024229
