19
Iteration:  4331charge 0 multiplicity 1
 C         4.256652        -1.761766         0.757211
 C         3.254886        -0.783535         0.336655
 O         2.090667        -1.309707        -0.537921
 C         1.350001        -0.007518        -0.184318
 C        -0.145027        -0.053421        -0.084022
 C         2.158580         1.046943        -0.928467
 C         3.426412         0.648979        -0.047373
 O         4.639943         1.225276        -0.031653
 C         2.400591         0.227434         1.113200
 H         3.847404        -2.383941         1.640786
 H         4.462716        -2.444818        -0.070468
 H         5.241109        -1.447240         1.266923
 H        -0.366768        -0.480426         0.954772
 H        -0.788740         0.882953        -0.084414
 H        -0.586732        -0.706782        -0.796276
 H         2.119664         0.954184        -2.017031
 H         1.778410         2.055981        -0.700755
 H         4.538935         2.121353        -0.372675
 H         2.377372         0.555649         2.189247
