19
Iteration:  1947charge 0 multiplicity 1
 C         4.347098        -1.768293         0.564208
 C         3.235481        -0.788324         0.401259
 O         1.977990        -1.290671        -0.335374
 C         1.359457         0.006250        -0.033743
 C        -0.198345        -0.038683        -0.144408
 C         2.226499         1.058088        -1.065187
 C         3.328775         0.649237        -0.137005
 O         4.597845         1.154670         0.102497
 C         2.511396         0.243828         1.075477
 H         3.790758        -2.596041         1.190839
 H         4.609345        -2.251959        -0.411225
 H         5.174665        -1.196718         0.975017
 H        -0.498011        -0.806326         0.588554
 H        -0.639472         0.947588         0.081667
 H        -0.346208        -0.362644        -1.216318
 H         2.101261         0.847968        -2.174761
 H         2.134014         2.111811        -0.859779
 H         4.768387         2.133958        -0.006429
 H         2.695329         0.561767         2.100079
