19
Iteration:  1068
 C         4.215426        -1.661131         0.586054
 C         3.100432        -0.769891         0.308587
 O         2.094874        -1.328359        -0.496161
 C         1.418792        -0.020359        -0.119393
 C        -0.135856        -0.015621        -0.051462
 C         2.226072         0.976049        -0.981352
 C         3.380913         0.668745         0.011175
 O         4.653530         1.199485         0.020268
 C         2.428924         0.177759         1.095255
 H         3.975396        -2.612421         1.031031
 H         4.727189        -1.880225        -0.417816
 H         4.857669        -1.181795         1.313398
 H        -0.563583        -0.890218         0.488869
 H        -0.267488         0.861699         0.500668
 H        -0.741977         0.002353        -0.945297
 H         2.424899         0.612567        -1.981102
 H         1.867141         2.016787        -0.909800
 H         4.693755         1.987815         0.597939
 H         2.170952         0.437800         2.203877
