19
Iteration:  3928charge 0 multiplicity 1
 C         4.278703        -1.733952         0.627491
 C         3.183719        -0.831355         0.332812
 O         2.007794        -1.344850        -0.405401
 C         1.456251        -0.003212        -0.068439
 C        -0.181275         0.015509        -0.033515
 C         2.267311         0.888501        -1.115279
 C         3.319607         0.639624        -0.072473
 O         4.613941         1.302231         0.079045
 C         2.472352         0.258466         1.047730
 H         3.914556        -2.547749         1.285323
 H         4.454191        -2.179188        -0.377343
 H         5.064162        -1.027827         1.135515
 H        -0.509904        -0.536015         0.846556
 H        -0.510326         1.091533        -0.123131
 H        -0.570181        -0.657501        -0.872434
 H         2.503199         0.398702        -2.126509
 H         2.008114         2.016626        -1.218598
 H         4.365837         2.194157         0.419997
 H         2.505006         0.685878         2.094229
