19
Iteration:  3787charge 0 multiplicity 1
 C         4.230323        -1.873615         0.706132
 C         3.176165        -0.791915         0.317252
 O         2.037329        -1.348367        -0.417972
 C         1.388782        -0.006196        -0.191010
 C        -0.057803        -0.030851        -0.080270
 C         2.152302         0.933380        -1.073389
 C         3.320069         0.760025        -0.028200
 O         4.580782         1.295416        -0.001485
 C         2.588424         0.305259         1.082307
 H         3.854934        -2.432242         1.575240
 H         4.469101        -2.576546        -0.093299
 H         5.127930        -1.444439         1.282884
 H        -0.396460        -0.529926         0.856286
 H        -0.325479         1.100463         0.000956
 H        -0.656275        -0.705821        -0.779645
 H         2.341050         0.712020        -2.111442
 H         1.677113         1.937815        -1.091662
 H         4.471776         2.068803         0.566859
 H         2.699500         0.727662         2.162526
