19
Iteration:  1021charge 0 multiplicity 1
 C         4.206028        -1.866258         0.611747
 C         3.086518        -0.878628         0.267344
 O         2.039755        -1.314197        -0.501995
 C         1.439996         0.032087        -0.135168
 C        -0.040240        -0.062096        -0.000441
 C         2.229526         1.117218        -0.992945
 C         3.376188         0.612508        -0.106125
 O         4.605322         1.350987         0.131354
 C         2.458572         0.185847         1.063208
 H         3.968292        -2.577780         1.408908
 H         4.678760        -2.407709        -0.238445
 H         4.915312        -1.157150         1.137145
 H        -0.300064        -0.511873         0.946384
 H        -0.586698         0.837289        -0.166081
 H        -0.425559        -0.870760        -0.636420
 H         2.334475         1.024696        -2.104175
 H         1.852110         2.052221        -0.624551
 H         4.314028         2.263600         0.120185
 H         2.581044         0.632632         2.051185
