19
Iteration:  4455
 C         4.351963        -1.763328         0.794663
 C         3.256594        -0.829173         0.312207
 O         2.014828        -1.331188        -0.531934
 C         1.379840         0.103475        -0.151101
 C        -0.102396         0.007411        -0.026037
 C         2.243629         0.958645        -0.963749
 C         3.343011         0.689912         0.010936
 O         4.590379         1.213231        -0.052892
 C         2.332738         0.208649         1.023044
 H         3.780652        -2.603277         1.350206
 H         5.118306        -2.089017        -0.098822
 H         5.022255        -1.331147         1.539241
 H        -0.339675        -0.757073         0.787761
 H        -0.652657         0.883222         0.348456
 H        -0.699607        -0.374998        -0.964974
 H         2.522822         0.708873        -1.990011
 H         1.899760         2.001750        -0.859177
 H         4.465385         2.134269        -0.348038
 H         2.265937         0.369676         2.045758
