19
Iteration:  2526
 C         4.213594        -1.847312         0.679864
 C         3.230993        -0.825461         0.346802
 O         2.016274        -1.272783        -0.403543
 C         1.416739        -0.003706        -0.135380
 C        -0.064970         0.006006        -0.007377
 C         2.198092         1.024052        -1.001541
 C         3.347916         0.708428        -0.087354
 O         4.638677         1.265277        -0.040711
 C         2.413858         0.141371         1.067134
 H         3.770335        -2.641407         1.244105
 H         4.732689        -2.383451        -0.112427
 H         4.995418        -1.246153         1.268051
 H        -0.459741        -0.593798         0.776260
 H        -0.610472         0.980240         0.009161
 H        -0.453697        -0.326669        -1.063733
 H         2.377877         0.811968        -2.046284
 H         1.946589         2.039868        -0.926825
 H         4.591289         2.226201        -0.062351
 H         2.289052         0.374345         2.135301
