19
Iteration:   630charge 0 multiplicity 1
 C         4.186726        -1.769686         0.645576
 C         3.171213        -0.837225         0.214500
 O         2.110181        -1.256277        -0.576786
 C         1.416857        -0.032966        -0.103326
 C        -0.181665        -0.081036         0.000538
 C         2.322216         1.079795        -0.873464
 C         3.345563         0.735506         0.047286
 O         4.597873         1.216614        -0.057623
 C         2.410667         0.211266         1.105211
 H         3.784519        -2.392006         1.379008
 H         4.665948        -2.387140        -0.126723
 H         5.082409        -1.200300         1.028453
 H        -0.424774        -0.683280         0.841751
 H        -0.583131         0.927733        -0.001216
 H        -0.622349        -0.710892        -0.818059
 H         2.466610         0.820469        -1.922105
 H         1.915804         2.061269        -0.967495
 H         4.760856         1.985967         0.494779
 H         2.299171         0.111039         2.255829
