19
Iteration:  4296
 C         4.276879        -1.747024         0.783720
 C         3.168462        -0.827563         0.214019
 O         1.926597        -1.311187        -0.407426
 C         1.439124         0.062530        -0.169140
 C        -0.101482        -0.106005        -0.071616
 C         2.203974         1.063427        -1.009076
 C         3.357947         0.645607        -0.083995
 O         4.633249         1.238664        -0.018329
 C         2.516408         0.256133         1.065463
 H         3.700906        -2.559293         1.140110
 H         4.962181        -2.064595         0.035391
 H         4.896582        -1.206662         1.565376
 H        -0.209378        -0.574348         0.849394
 H        -0.764916         0.763425        -0.154690
 H        -0.349650        -0.875872        -0.820285
 H         2.157959         0.770218        -2.069947
 H         1.870431         2.062697        -0.780998
 H         4.567736         1.968162         0.635069
 H         2.604880         0.276801         2.110319
