19
Iteration:  3617charge 0 multiplicity 1
 C         4.227883        -1.747520         0.733314
 C         3.218347        -0.835961         0.284564
 O         2.109424        -1.373723        -0.444044
 C         1.442029         0.120773        -0.143849
 C        -0.127113         0.047745        -0.013901
 C         2.220621         0.970736        -1.069977
 C         3.365881         0.609829        -0.082240
 O         4.551538         1.293021        -0.004819
 C         2.434848         0.166872         1.067468
 H         3.775233        -2.368655         1.511217
 H         4.531974        -2.400086        -0.098936
 H         5.120187        -1.213293         1.292512
 H        -0.308683        -0.697811         0.792138
 H        -0.694172         0.957408         0.189843
 H        -0.666440        -0.379255        -0.786359
 H         2.214578         0.427282        -2.056129
 H         1.937374         2.013241        -1.263924
 H         4.592110         2.120640         0.551781
 H         2.268662         0.405230         2.196217
