19
Iteration:  4958
 C         4.193087        -1.867736         0.586039
 C         3.158725        -0.806542         0.335983
 O         2.016463        -1.244944        -0.404825
 C         1.421788         0.011207        -0.060139
 C        -0.124294        -0.060865        -0.148834
 C         2.212317         1.016673        -0.986975
 C         3.350364         0.777542        -0.044627
 O         4.664731         1.345848         0.061672
 C         2.499138         0.213038         1.110637
 H         3.886594        -2.331413         1.492506
 H         4.226673        -2.808087        -0.041307
 H         5.285521        -1.595679         0.757702
 H        -0.288303        -1.020282         0.311802
 H        -0.942043         0.521475         0.230628
 H        -0.484896        -0.368866        -1.200452
 H         2.005346         0.862670        -2.041181
 H         1.838099         2.029400        -0.734321
 H         5.206211         0.820269        -0.529626
 H         2.566961         0.458273         2.205586
