19
Iteration:  3208
 C         4.358786        -1.771923         0.637869
 C         3.118065        -0.855941         0.383607
 O         1.987632        -1.250248        -0.391772
 C         1.366345         0.036394        -0.105131
 C        -0.134899        -0.050175        -0.168029
 C         2.247379         1.007183        -0.988624
 C         3.374824         0.609061        -0.005732
 O         4.618249         1.169552        -0.012199
 C         2.422670         0.289212         1.105444
 H         4.167702        -2.360321         1.555799
 H         4.718262        -2.239479        -0.299456
 H         5.137511        -1.049047         0.869510
 H        -0.300934        -0.384269         0.865846
 H        -0.511151         1.008166        -0.216340
 H        -0.378232        -0.686223        -1.084982
 H         2.229357         0.582010        -1.988434
 H         2.188777         2.084533        -0.899861
 H         4.492192         2.122245        -0.276153
 H         2.251119         0.605188         2.088600
