19
Iteration:  1461charge 0 multiplicity 1
 C         4.285137        -1.667456         0.594453
 C         3.174145        -0.807489         0.383856
 O         2.027376        -1.281268        -0.482645
 C         1.414687        -0.034243        -0.196751
 C        -0.165468        -0.040335        -0.001327
 C         2.292677         1.041507        -0.973586
 C         3.374738         0.654747         0.008400
 O         4.714218         1.122781        -0.044157
 C         2.266198         0.223175         1.165138
 H         4.167567        -2.645908         0.970022
 H         4.794611        -2.000357        -0.335485
 H         4.909839        -1.089542         1.265585
 H        -0.436505        -1.010277         0.539403
 H        -0.385624         1.092857         0.305834
 H        -0.655277        -0.176548        -1.008272
 H         2.506591         0.747248        -1.989144
 H         1.828966         2.108253        -0.783590
 H         4.599277         2.096278        -0.017957
 H         1.834319         0.531367         2.178652
