19
Iteration:   342charge 0 multiplicity 1
 C         4.301225        -1.796369         0.715335
 C         3.278501        -0.770399         0.246432
 O         2.011882        -1.304393        -0.588376
 C         1.342590        -0.054972        -0.120282
 C        -0.112238        -0.037082        -0.029862
 C         2.124532         1.072566        -0.897974
 C         3.351254         0.737437         0.002339
 O         4.704447         1.178661         0.050034
 C         2.402320         0.210273         1.026117
 H         3.764460        -2.641002         1.332914
 H         4.599205        -2.153313        -0.262085
 H         5.232768        -1.538272         1.287219
 H        -0.558706        -0.756338         0.650442
 H        -0.388334         0.870772         0.445078
 H        -0.494760        -0.179531        -1.068460
 H         2.074616         0.936298        -1.974490
 H         1.686623         2.052631        -0.722414
 H         4.673664         2.165378        -0.038944
 H         2.426276         0.477519         2.112734
