19
Iteration:  2632
 C         4.374987        -1.751862         0.586069
 C         3.117714        -0.859689         0.379114
 O         2.021458        -1.368268        -0.430662
 C         1.419967        -0.013549        -0.153550
 C        -0.067999         0.136626        -0.033605
 C         2.268472         0.932203        -1.041970
 C         3.298788         0.703429         0.085109
 O         4.643691         1.201717        -0.039474
 C         2.293353         0.251219         1.065873
 H         4.173134        -2.666624         1.153800
 H         4.590194        -1.958909        -0.452448
 H         5.244043        -1.186902         1.079324
 H        -0.440523        -0.646605         0.682723
 H        -0.341243         1.193121         0.343920
 H        -0.583655        -0.209775        -0.855654
 H         2.503805         0.528087        -2.085375
 H         1.611482         1.879986        -0.977399
 H         4.717055         2.108267         0.307590
 H         2.150187         0.401448         2.138995
