19
Iteration:  2895
 C         4.157721        -1.755297         0.773816
 C         3.180054        -0.764857         0.251650
 O         2.028129        -1.254978        -0.574664
 C         1.412609         0.065398        -0.054882
 C        -0.037317        -0.108837         0.005948
 C         2.266256         1.026193        -0.943997
 C         3.401115         0.622402        -0.043393
 O         4.636594         1.226837        -0.096251
 C         2.333795         0.160438         1.085174
 H         3.733172        -2.667762         1.240558
 H         4.925205        -2.071351         0.016915
 H         4.762372        -1.193965         1.496788
 H        -0.412339        -0.821030         0.763088
 H        -0.514770         0.941353         0.293000
 H        -0.430175        -0.564666        -0.923586
 H         2.368994         0.756282        -1.970048
 H         1.970491         2.054369        -0.802165
 H         4.602493         2.215727         0.020956
 H         2.519145         0.418520         2.155412
