19
Iteration:  2237charge 0 multiplicity 1
 C         4.192468        -1.854412         0.778421
 C         3.201957        -0.831894         0.321903
 O         1.972332        -1.266450        -0.445972
 C         1.424846        -0.008724        -0.132606
 C        -0.068835        -0.079113        -0.007884
 C         2.150658         1.046310        -0.966948
 C         3.403720         0.665835        -0.121224
 O         4.676099         1.268804        -0.030341
 C         2.530265         0.253287         0.976286
 H         3.558985        -2.519340         1.432667
 H         4.638997        -2.298881        -0.134133
 H         4.861113        -1.299517         1.474734
 H        -0.755999        -0.941169         0.389319
 H        -0.542264         0.860044         0.052309
 H        -0.400511        -0.343861        -0.978102
 H         2.020053         1.059322        -2.039485
 H         1.911609         2.023843        -0.459813
 H         4.523358         2.218055         0.078606
 H         2.527820         0.470186         2.083235
