19
Iteration:  1560
 C         4.164532        -1.863231         0.625298
 C         3.187185        -0.808545         0.331290
 O         2.036108        -1.284346        -0.503635
 C         1.419651         0.027999        -0.113394
 C        -0.065533        -0.066255        -0.010935
 C         2.271549         0.937888        -0.990133
 C         3.432810         0.645160        -0.047226
 O         4.631847         1.333703         0.017586
 C         2.354387         0.283873         1.106610
 H         4.009791        -2.582223         1.415044
 H         4.228745        -2.423006        -0.362857
 H         5.129065        -1.481292         1.008245
 H        -0.326092        -0.700055         0.880657
 H        -0.397551         1.056304         0.146111
 H        -0.497146        -0.589946        -0.822853
 H         2.372429         0.728674        -2.031910
 H         1.848876         2.028564        -0.948531
 H         4.334684         2.248794         0.054065
 H         2.170532         0.606677         2.077675
