19
Iteration:  1209
 C         4.244883        -1.820641         0.648125
 C         3.243329        -0.786109         0.214549
 O         2.039861        -1.289156        -0.429560
 C         1.377331        -0.021781        -0.107847
 C        -0.144645        -0.041490        -0.002508
 C         2.202204         1.119765        -1.068479
 C         3.327345         0.710170        -0.104852
 O         4.630141         1.239401         0.131825
 C         2.502383         0.182692         1.000212
 H         3.705738        -2.436644         1.354643
 H         4.474203        -2.506451        -0.253167
 H         5.049836        -1.426426         1.216761
 H        -0.527157        -0.368761         0.990683
 H        -0.376038         0.954764        -0.323773
 H        -0.499635        -0.823311        -0.677368
 H         2.273333         0.750964        -2.089047
 H         1.760041         2.115392        -0.977060
 H         4.551765         1.804993         0.916988
 H         2.568778         0.188219         2.108489
