19
Iteration:  3230
 C         4.239311        -1.805583         0.742292
 C         3.185561        -0.802813         0.304936
 O         2.054702        -1.290802        -0.382109
 C         1.386697         0.027439        -0.060091
 C        -0.154016        -0.054555        -0.098556
 C         2.219999         1.019882        -1.022538
 C         3.413091         0.614837        -0.137251
 O         4.643209         1.231378         0.038148
 C         2.427494         0.266632         1.054015
 H         3.736455        -2.584544         1.355813
 H         4.409179        -2.124185        -0.297769
 H         5.165682        -1.425514         1.100619
 H        -0.513754        -0.699237         0.739205
 H        -0.668749         0.952252        -0.085930
 H        -0.180150        -0.521960        -1.125097
 H         2.176579         0.905793        -2.103655
 H         1.768114         1.901815        -0.641610
 H         4.594532         2.109166        -0.333195
 H         2.463359         0.807386         1.966327
