19
Iteration:  2471
 C         4.374357        -1.695110         0.646491
 C         3.174158        -0.811160         0.354838
 O         2.042204        -1.343642        -0.454393
 C         1.423023         0.098677        -0.130723
 C        -0.128771         0.061913         0.001316
 C         2.194435         0.957915        -1.094563
 C         3.241656         0.640588        -0.046110
 O         4.661858         1.122773        -0.023490
 C         2.337410         0.212768         1.161442
 H         3.979896        -2.691140         0.819193
 H         4.857627        -1.648750        -0.338759
 H         5.204915        -1.440003         1.414344
 H        -0.518021        -0.683208         0.695982
 H        -0.457737         1.118650         0.222301
 H        -0.518733        -0.197909        -1.061337
 H         2.570671         0.524684        -2.016270
 H         1.749780         1.902999        -1.111364
 H         4.803137         1.908401         0.583612
 H         2.395969         0.709661         2.183409
