19
Iteration:  3254charge 0 multiplicity 1
 C         4.172072        -1.907061         0.779204
 C         3.171267        -0.805838         0.212993
 O         2.033888        -1.324618        -0.390158
 C         1.436452         0.002972        -0.187008
 C        -0.045042        -0.084887        -0.034446
 C         2.197656         1.023198        -1.066857
 C         3.371206         0.727527        -0.060812
 O         4.664373         1.293635        -0.049258
 C         2.417869         0.332429         1.136598
 H         3.460766        -2.541450         1.322353
 H         4.659222        -2.408787        -0.063711
 H         4.900914        -1.455994         1.383736
 H        -0.384433        -0.825543         0.697412
 H        -0.417248         0.994092         0.312487
 H        -0.406205        -0.238856        -1.046800
 H         2.439567         0.685060        -2.075234
 H         1.542607         1.848672        -0.911429
 H         4.647618         2.214136         0.237508
 H         2.463053         0.330056         2.270936
