19
Iteration:  1345
 C         4.168671        -1.806216         0.708782
 C         3.139008        -0.871351         0.271564
 O         2.108926        -1.311839        -0.531871
 C         1.346043         0.097289        -0.146219
 C        -0.040312        -0.050057         0.044814
 C         2.212210         1.035795        -1.028815
 C         3.424434         0.665231        -0.060877
 O         4.636264         1.379871        -0.013200
 C         2.412812         0.118284         1.059746
 H         3.787344        -2.683427         1.405345
 H         4.472822        -2.463783        -0.132224
 H         5.031029        -1.245228         1.273761
 H        -0.461566        -0.893049         0.581843
 H        -0.428077         0.881423         0.527192
 H        -0.762832         0.011695        -0.799638
 H         2.257503         0.627672        -2.067270
 H         1.852032         2.093486        -0.945999
 H         4.698483         1.712405         0.922003
 H         2.412665         0.172560         2.213282
