19
Iteration:  2481charge 0 multiplicity 1
 C         4.393477        -1.672903         0.636582
 C         3.168401        -0.823287         0.320200
 O         1.962962        -1.288167        -0.387214
 C         1.363855         0.046714        -0.063498
 C        -0.100219         0.043332        -0.067664
 C         2.184654         0.966739        -1.084252
 C         3.390199         0.638211        -0.124818
 O         4.631089         1.118873         0.058978
 C         2.435570         0.183518         1.080565
 H         4.075495        -2.709163         0.768023
 H         5.028190        -1.804489        -0.241661
 H         5.045720        -1.300339         1.495360
 H        -0.479390        -0.565743         0.790818
 H        -0.484976         1.092591         0.200568
 H        -0.632885        -0.192642        -1.022686
 H         2.085670         0.548391        -2.070343
 H         1.848493         1.970195        -1.157808
 H         4.474771         1.962057         0.524425
 H         2.235044         0.676087         2.059531
