19
Iteration:  3594charge 0 multiplicity 1
 C         4.324667        -1.760970         0.702155
 C         3.133145        -0.895449         0.347458
 O         1.924614        -1.298736        -0.445084
 C         1.420135        -0.061437        -0.114484
 C        -0.067715        -0.018688        -0.021494
 C         2.309898         0.943189        -1.038988
 C         3.367443         0.631968        -0.092269
 O         4.617893         1.314207         0.050760
 C         2.383497         0.281865         0.967461
 H         4.162286        -2.410518         1.564159
 H         4.603898        -2.390221        -0.149604
 H         5.199499        -1.082856         1.079472
 H        -0.524351        -0.439179         0.880065
 H        -0.382497         1.046228        -0.181567
 H        -0.494574        -0.508635        -0.790660
 H         2.173331         0.909049        -2.142100
 H         1.877620         1.912152        -0.714634
 H         4.586918         2.265623         0.126480
 H         2.393529         0.562642         2.095395
