19
Iteration:  3659charge 0 multiplicity 1
 C         4.204732        -1.780818         0.792762
 C         3.119348        -0.881563         0.335114
 O         2.071275        -1.401880        -0.370610
 C         1.419682         0.108042        -0.153204
 C        -0.065945        -0.041699        -0.055571
 C         2.163728         0.988903        -1.030720
 C         3.392643         0.690883        -0.126129
 O         4.641760         1.303612        -0.069703
 C         2.429590         0.232521         0.992331
 H         3.693123        -2.632036         1.206319
 H         4.758023        -2.157770        -0.074958
 H         5.045929        -1.313560         1.446921
 H        -0.147934        -1.049795         0.413535
 H        -0.583877         0.712476         0.664557
 H        -0.459446         0.113408        -0.989453
 H         2.207228         0.940344        -2.203821
 H         1.973475         2.039906        -0.676905
 H         4.495634         2.096036         0.538422
 H         2.376762         0.587641         2.115828
