19
Iteration:  4730charge 0 multiplicity 1
 C         4.355090        -1.733008         0.663833
 C         3.207824        -0.853660         0.346299
 O         2.033351        -1.393702        -0.456644
 C         1.322375        -0.056185        -0.137837
 C        -0.108859         0.178680         0.014742
 C         2.252878         0.957358        -1.073427
 C         3.293984         0.649865        -0.104219
 O         4.520359         1.341705         0.167704
 C         2.483398         0.146112         1.063084
 H         4.374595        -2.423231         1.431592
 H         4.374013        -2.123124        -0.405897
 H         5.243225        -1.046461         0.775083
 H        -0.533359        -0.357915         0.861862
 H        -0.276232         1.279203         0.013012
 H        -0.654464        -0.121443        -0.987077
 H         2.513001         0.398018        -2.024260
 H         1.602741         1.812915        -1.320773
 H         5.074373         1.170829        -0.610002
 H         2.467105         0.336377         2.090905
