19
Iteration:  4617charge 0 multiplicity 1
 C         4.347912        -1.810578         0.792079
 C         3.230683        -0.856166         0.294014
 O         1.975535        -1.358437        -0.457032
 C         1.383326        -0.007648        -0.173170
 C        -0.124913         0.022866        -0.080620
 C         2.222875         1.083429        -0.918580
 C         3.357289         0.705072         0.019533
 O         4.599992         1.379023        -0.212757
 C         2.370690         0.142342         1.107551
 H         3.845976        -2.565636         1.458872
 H         4.962154        -2.293231         0.042080
 H         5.027005        -1.319278         1.467237
 H        -0.483554        -0.908725         0.439931
 H        -0.333041         0.873327         0.568336
 H        -0.573340         0.083509        -1.104498
 H         2.319268         0.981595        -2.046772
 H         1.827830         2.080879        -0.607000
 H         5.180156         0.713140         0.261426
 H         2.290591         0.244739         2.192730
