19
Iteration:  2231charge 0 multiplicity 1
 C         4.202700        -1.910003         0.803288
 C         3.237384        -0.865427         0.282394
 O         1.950582        -1.232893        -0.455261
 C         1.364365         0.003958        -0.124206
 C        -0.070362        -0.105332        -0.038695
 C         2.126191         1.050274        -0.972709
 C         3.389835         0.670402        -0.170336
 O         4.680612         1.273751         0.006584
 C         2.537819         0.261153         1.021378
 H         3.784415        -2.629096         1.539939
 H         4.837887        -2.413098         0.058934
 H         4.892044        -1.225308         1.305521
 H        -0.494624        -0.868984         0.553072
 H        -0.454948         0.962264         0.200568
 H        -0.528054        -0.387091        -1.091381
 H         2.015916         1.083393        -2.115170
 H         1.947736         2.017921        -0.506954
 H         4.607921         2.275734         0.126645
 H         2.570285         0.829720         1.947581
