19
Iteration:  3200
 C         4.354075        -1.681421         0.692701
 C         3.149154        -0.858079         0.336256
 O         1.954807        -1.248429        -0.361158
 C         1.408318         0.034898        -0.108774
 C        -0.107909        -0.000416        -0.147975
 C         2.304044         0.969866        -1.014530
 C         3.334413         0.665740         0.023832
 O         4.629925         1.149160        -0.036018
 C         2.406466         0.204821         1.091587
 H         4.258012        -2.567703         1.343344
 H         4.379064        -2.160102        -0.335666
 H         5.243480        -1.109300         0.724189
 H        -0.540630        -0.525169         0.723991
 H        -0.642932         1.039967        -0.288176
 H        -0.366572        -0.713011        -0.880341
 H         2.385578         0.653490        -2.093183
 H         1.730093         1.944789        -0.909087
 H         4.616448         2.130595        -0.086625
 H         2.131097         0.430896         2.145049
