19
Iteration:  2453
 C         4.251009        -1.695919         0.592077
 C         3.108913        -0.805757         0.400772
 O         2.098716        -1.288294        -0.428343
 C         1.403786        -0.071019        -0.144551
 C        -0.112311         0.019372        -0.032910
 C         2.305380         0.945695        -0.960506
 C         3.374846         0.724430         0.031196
 O         4.620140         1.140243        -0.120927
 C         2.334931         0.264150         1.082571
 H         3.971241        -2.710695         0.905873
 H         4.876235        -1.932677        -0.291989
 H         4.904437        -1.206193         1.319461
 H        -0.439400        -0.617245         0.734314
 H        -0.295796         0.984550         0.338760
 H        -0.788462        -0.053162        -0.924938
 H         2.347812         0.560606        -2.044487
 H         1.951861         2.044301        -0.965842
 H         4.841669         1.918813         0.477784
 H         1.863870         0.367790         2.070208
