19
Iteration:  3337
 C         4.276753        -1.705813         0.689303
 C         3.191121        -0.775502         0.350027
 O         2.029601        -1.277665        -0.403498
 C         1.360345        -0.006564        -0.139434
 C        -0.141933         0.058778        -0.064139
 C         2.211486         0.870031        -1.016914
 C         3.410431         0.676336        -0.128039
 O         4.632332         1.183612         0.061576
 C         2.397717         0.212933         1.073100
 H         4.025863        -2.577851         1.332718
 H         4.559879        -2.208609        -0.267268
 H         5.138949        -1.214336         1.191045
 H        -0.464763        -0.771300         0.554331
 H        -0.503116         0.978926         0.110619
 H        -0.466623        -0.215960        -1.116919
 H         2.196606         0.750161        -2.114036
 H         1.962673         1.964708        -0.985382
 H         4.833630         2.095331        -0.113122
 H         2.384820         0.302683         2.175623
