19
Iteration:  1944charge 0 multiplicity 1
 C         4.311608        -1.760746         0.569568
 C         3.234212        -0.789410         0.388469
 O         1.997808        -1.275963        -0.336466
 C         1.362904         0.017097        -0.042946
 C        -0.189494        -0.051030        -0.150819
 C         2.212645         1.042313        -1.052139
 C         3.371548         0.627804        -0.132687
 O         4.610210         1.158068         0.100336
 C         2.501706         0.241272         1.079091
 H         3.815986        -2.581040         1.227214
 H         4.597017        -2.158781        -0.429251
 H         5.136510        -1.203495         1.002984
 H        -0.534530        -0.831250         0.719284
 H        -0.638234         0.914304         0.105020
 H        -0.407967        -0.293888        -1.186389
 H         2.070261         0.939466        -2.164438
 H         2.054789         2.114818        -0.872734
 H         4.675267         2.105145        -0.106089
 H         2.572447         0.511465         2.048290
