19
Iteration:  3032charge 0 multiplicity 1
 C         4.388649        -1.681010         0.659492
 C         3.164162        -0.806419         0.275344
 O         1.956157        -1.284355        -0.377975
 C         1.352367        -0.001333        -0.123428
 C        -0.145794         0.015720        -0.075658
 C         2.145483         0.975401        -0.984114
 C         3.334650         0.688386        -0.075799
 O         4.703968         1.123624         0.032216
 C         2.437811         0.213264         1.059630
 H         3.964543        -2.405984         1.336497
 H         4.742377        -2.277437        -0.153044
 H         5.199176        -1.085707         1.222724
 H        -0.710388        -0.639449         0.676033
 H        -0.433932         1.029405        -0.255768
 H        -0.370823        -0.552776        -1.114098
 H         2.389275         0.689647        -2.084925
 H         1.949766         2.072512        -0.988342
 H         4.664032         2.036495         0.369636
 H         2.643304         0.415894         2.158656
