19
Iteration:  2110charge 0 multiplicity 1
 C         4.307069        -1.770493         0.646356
 C         3.207371        -0.799987         0.355492
 O         1.974944        -1.267771        -0.366706
 C         1.368334        -0.005866        -0.128984
 C        -0.126815        -0.054957        -0.089008
 C         2.200187         1.021098        -0.968674
 C         3.390859         0.679602        -0.081211
 O         4.675852         1.199500        -0.067105
 C         2.412729         0.227946         1.120525
 H         3.775946        -2.628080         1.108906
 H         4.810506        -2.336170        -0.116537
 H         5.096371        -1.337529         1.200300
 H        -0.704490        -0.671583         0.579726
 H        -0.578501         0.961565         0.113698
 H        -0.524083        -0.198542        -1.145372
 H         2.362473         0.847293        -2.081939
 H         2.047963         2.090293        -0.993783
 H         4.697923         2.100988         0.240779
 H         2.219355         0.257743         2.240897
