19
Iteration:   933
 C         4.337680        -1.721264         0.563535
 C         3.123176        -0.887288         0.298779
 O         1.938731        -1.333512        -0.426428
 C         1.365043         0.047593        -0.082082
 C        -0.207652        -0.066058        -0.119911
 C         2.244168         1.084684        -0.978329
 C         3.386052         0.704757        -0.020028
 O         4.699356         1.213436         0.095799
 C         2.507794         0.191501         1.081677
 H         4.088766        -2.618734         1.193092
 H         4.817312        -1.992554        -0.359787
 H         5.079181        -1.005776         0.995374
 H        -0.348414        -1.023979         0.309042
 H        -0.726558         0.669020         0.468240
 H        -0.595741        -0.247775        -1.118867
 H         2.451956         0.868484        -2.045859
 H         1.693612         1.995525        -0.969518
 H         4.647963         2.145019         0.313446
 H         2.338489         0.444848         2.044638
