19
Iteration:  3381charge 0 multiplicity 1
 C         4.291015        -1.702470         0.582752
 C         3.160505        -0.782715         0.438404
 O         1.967789        -1.305642        -0.307126
 C         1.421235         0.028601        -0.111675
 C        -0.095542        -0.058828        -0.201633
 C         2.256493         1.028491        -0.951240
 C         3.354872         0.631797        -0.032699
 O         4.662514         1.153868        -0.042478
 C         2.429017         0.272793         1.067793
 H         3.911416        -2.518526         1.283597
 H         4.260129        -2.249561        -0.392834
 H         5.192575        -1.268055         0.991719
 H        -0.375991        -0.449332         0.764004
 H        -0.498977         0.845979        -0.417677
 H        -0.436658        -0.762048        -1.020884
 H         2.397728         0.868249        -2.050629
 H         1.765234         2.044493        -0.958489
 H         4.472645         2.056384         0.199062
 H         2.151177         0.410082         2.160423
