19
Iteration:   135
 C         4.218379        -1.951213         0.708829
 C         3.069000        -0.978140         0.306555
 O         2.011063        -1.287722        -0.515303
 C         1.387125         0.117014        -0.269896
 C        -0.019830        -0.079995         0.053766
 C         2.227052         1.161607        -1.004950
 C         3.428211         0.657760        -0.096986
 O         4.534230         1.467151         0.163076
 C         2.485969         0.153242         0.970483
 H         3.753282        -2.825917         1.287583
 H         4.906828        -2.345102         0.003008
 H         4.898884        -1.407149         1.494328
 H         0.065412        -0.879935         0.793233
 H        -0.391953         0.777785         0.579075
 H        -0.659272        -0.521199        -0.809234
 H         2.248042         0.988751        -2.115533
 H         1.931712         2.204032        -0.677123
 H         5.138809         1.271530        -0.542513
 H         2.555355         0.477976         2.063508
