19
Iteration:  2012charge 0 multiplicity 1
 C         4.336809        -1.842253         0.644390
 C         3.162231        -0.858277         0.282191
 O         2.048185        -1.288064        -0.424984
 C         1.401983        -0.018503        -0.173584
 C        -0.080680         0.076974        -0.022885
 C         2.243870         0.945008        -0.999657
 C         3.335187         0.702017         0.008328
 O         4.570407         1.255093        -0.028407
 C         2.383413         0.215662         1.044895
 H         3.971988        -2.513952         1.578327
 H         4.854331        -2.467532        -0.123912
 H         5.144310        -1.259590         1.147676
 H        -0.391307        -0.560390         0.889758
 H        -0.540358         1.085633         0.212862
 H        -0.723275        -0.206198        -0.942495
 H         2.284262         0.762999        -2.119857
 H         2.081763         2.019335        -0.973270
 H         4.633909         2.004578         0.561047
 H         2.124019         0.574916         2.071225
