19
Iteration:   468
 C         4.233511        -1.824000         0.760217
 C         3.235547        -0.771646         0.181551
 O         2.022202        -1.218204        -0.587556
 C         1.357225         0.014224        -0.071453
 C        -0.135144        -0.100531         0.060612
 C         2.317479         1.056691        -0.967857
 C         3.355717         0.645396         0.000077
 O         4.628307         1.281518        -0.037930
 C         2.380124         0.157613         1.065809
 H         3.630383        -2.512538         1.306439
 H         4.747016        -2.230218        -0.186471
 H         5.074566        -1.336662         1.367381
 H        -0.411277        -0.936522         0.648111
 H        -0.605523         0.830543         0.319077
 H        -0.486212        -0.354307        -0.950590
 H         2.550044         0.822410        -2.008325
 H         2.043776         2.147961        -0.915715
 H         4.604596         2.193296         0.361748
 H         2.242662        -0.201558         2.168667
