19
Iteration:  2907charge 0 multiplicity 1
 C         4.194124        -1.777571         0.786002
 C         3.143030        -0.862268         0.300068
 O         1.996329        -1.249035        -0.541341
 C         1.431889         0.001366        -0.152156
 C        -0.040990        -0.129833         0.018052
 C         2.223853         1.104616        -0.980451
 C         3.372811         0.740460         0.003566
 O         4.701807         1.256893        -0.164129
 C         2.428779         0.155709         1.132342
 H         3.546593        -2.512907         1.319668
 H         4.875213        -2.293758         0.073547
 H         4.694333        -1.305929         1.586695
 H        -0.221997        -0.841820         0.791957
 H        -0.516739         0.886096         0.263445
 H        -0.501295        -0.324529        -1.009046
 H         2.324193         0.797539        -1.985922
 H         1.870355         2.131812        -0.929215
 H         4.569659         2.131003         0.264318
 H         1.886028        -0.017001         2.069477
