19
Iteration:  1810charge 0 multiplicity 1
 C         4.259332        -1.772233         0.587417
 C         3.095468        -0.851999         0.418531
 O         2.088522        -1.283544        -0.401978
 C         1.402247         0.038573        -0.172320
 C        -0.091630         0.034390        -0.119038
 C         2.153394         0.883115        -1.063734
 C         3.361818         0.732584         0.043480
 O         4.681762         1.216004        -0.006803
 C         2.448194         0.249933         1.175558
 H         4.320956        -2.720330         1.068123
 H         4.348469        -2.246227        -0.434347
 H         5.286129        -1.258323         0.710774
 H        -0.515530        -0.727441         0.613206
 H        -0.590129         1.025739         0.140386
 H        -0.623767        -0.325628        -1.070579
 H         2.222443         0.473909        -2.040922
 H         1.829062         1.983488        -0.991307
 H         4.519971         2.130464         0.242669
 H         2.069122         0.535936         2.327880
