19
Iteration:  1338charge 0 multiplicity 1
 C         4.170897        -1.776622         0.713572
 C         3.156284        -0.898281         0.282899
 O         2.030907        -1.301079        -0.507784
 C         1.378414         0.036438        -0.160591
 C        -0.105198        -0.080037         0.055315
 C         2.200324         1.068373        -1.039318
 C         3.433403         0.604198        -0.088110
 O         4.656661         1.373800         0.027515
 C         2.490717         0.171894         1.026275
 H         3.689241        -2.484487         1.317630
 H         4.687668        -2.341403        -0.077841
 H         4.925080        -1.228100         1.171412
 H        -0.441681        -0.995775         0.555111
 H        -0.481614         0.744007         0.622204
 H        -0.490272         0.207569        -0.956645
 H         2.253572         0.858754        -2.160503
 H         1.892878         2.036095        -0.751157
 H         4.713382         1.826499         0.889491
 H         2.287276         0.266996         2.042474
