19
Iteration:   801
 C         4.245325        -1.817658         0.526114
 C         3.202363        -0.779145         0.285565
 O         2.068260        -1.323539        -0.464646
 C         1.386495         0.042137        -0.108082
 C        -0.077478        -0.151846        -0.025282
 C         2.253960         1.127627        -0.860034
 C         3.376280         0.686148        -0.003432
 O         4.648556         1.225548         0.033878
 C         2.337984         0.258880         1.040289
 H         3.816057        -2.551878         1.368002
 H         4.281394        -2.547514        -0.309374
 H         5.259262        -1.388094         0.725091
 H        -0.295152        -0.425281         1.013461
 H        -0.676892         0.708619        -0.445997
 H        -0.299105        -0.879492        -0.778348
 H         2.289166         0.955644        -1.982430
 H         1.875572         2.161163        -0.673379
 H         4.534398         2.170617         0.220551
 H         1.785521         0.534134         1.953144
