19
Iteration:  1693
 C         4.229217        -1.991996         0.814991
 C         3.199975        -0.842817         0.222724
 O         2.013536        -1.226952        -0.424072
 C         1.380720         0.003708        -0.124959
 C        -0.076117        -0.052616         0.031967
 C         2.269828         1.029789        -1.053163
 C         3.371981         0.662892        -0.183384
 O         4.598269         1.360187         0.055621
 C         2.504944         0.278694         0.975552
 H         3.603282        -2.931611         0.982464
 H         4.890768        -2.467098         0.082068
 H         4.779926        -1.436700         1.638569
 H        -0.391282        -1.063745         0.457091
 H        -0.539856         0.812516         0.555013
 H        -0.636104        -0.180587        -0.898477
 H         2.075102         0.686238        -2.091170
 H         1.810423         1.971546        -0.686043
 H         4.480317         2.306133         0.022794
 H         2.310191         0.689410         2.081766
