19
Iteration:  2510charge 0 multiplicity 1
 C         4.276336        -1.722552         0.681807
 C         3.151493        -0.866253         0.142975
 O         1.930691        -1.457898        -0.359800
 C         1.372160         0.028280        -0.050921
 C        -0.123755         0.014568        -0.087119
 C         2.258989         1.032852        -0.996696
 C         3.438661         0.633933        -0.107834
 O         4.652569         1.256873         0.073879
 C         2.496855         0.313002         1.047817
 H         3.777915        -2.660813         1.113693
 H         4.809956        -1.995125        -0.254758
 H         4.934947        -1.371699         1.422462
 H        -0.501795        -0.643883         0.817493
 H        -0.404686         1.059677         0.148749
 H        -0.541427        -0.423401        -0.934928
 H         2.204763         0.882743        -2.132079
 H         1.749091         2.072216        -0.782502
 H         4.409024         2.163808        -0.043831
 H         2.514940         0.483330         2.119643
