19
Iteration:    64charge 0 multiplicity 1
 C         4.393108        -1.830985         0.550262
 C         3.152005        -0.923753         0.294408
 O         1.928596        -1.314880        -0.369862
 C         1.379049         0.063253        -0.100913
 C        -0.055766        -0.028478        -0.178608
 C         2.230778         1.091441        -0.861704
 C         3.374502         0.608758        -0.062554
 O         4.541335         1.317679         0.134363
 C         2.385986         0.227547         1.043705
 H         4.303235        -2.663107         1.179959
 H         4.911035        -2.140974        -0.416560
 H         5.155036        -1.172304         0.831682
 H        -0.381214        -0.744451         0.592114
 H        -0.552131         0.929467         0.205222
 H        -0.325956        -0.223424        -1.142690
 H         2.259244         0.886529        -1.938518
 H         1.990458         2.105227        -0.606233
 H         5.083506         1.225704        -0.641614
 H         2.440431         0.822399         1.959979
