19
Iteration:    61charge 0 multiplicity 1
 C         4.385713        -1.820709         0.547046
 C         3.138140        -0.914025         0.296935
 O         1.933486        -1.316402        -0.376741
 C         1.366972         0.067140        -0.120537
 C        -0.054936        -0.035443        -0.185802
 C         2.234374         1.092430        -0.865004
 C         3.386669         0.563885        -0.042416
 O         4.534526         1.303843         0.128632
 C         2.409449         0.246855         1.080092
 H         4.342928        -2.715579         1.220499
 H         4.889019        -2.099272        -0.454294
 H         5.169204        -1.034910         0.805776
 H        -0.344659        -0.748073         0.624455
 H        -0.573173         0.898129         0.235646
 H        -0.373425        -0.250552        -1.262842
 H         2.228904         1.014698        -1.998145
 H         1.994905         2.128330        -0.540416
 H         5.051624         1.247774        -0.707798
 H         2.448699         0.919478         1.994173
