19
Iteration:  2278charge 0 multiplicity 1
 C         4.305433        -1.772013         0.713169
 C         3.143649        -0.837740         0.423960
 O         2.046384        -1.211265        -0.492088
 C         1.357732        -0.027948        -0.090204
 C        -0.133024         0.035872        -0.034700
 C         2.280130         0.985314        -1.008205
 C         3.353949         0.656875         0.033377
 O         4.627292         1.193802        -0.152068
 C         2.387912         0.217527         1.105987
 H         3.977817        -2.717909         1.010146
 H         4.771165        -1.915899        -0.279332
 H         5.187073        -1.495629         1.353033
 H        -0.506505        -0.875196         0.577034
 H        -0.436338         1.025575         0.253718
 H        -0.406159        -0.293640        -1.158345
 H         2.546495         0.594879        -1.962779
 H         1.748646         1.936213        -0.996795
 H         4.657111         2.122826         0.096146
 H         2.063049         0.368444         2.150316
