19
Iteration:   201
 C         4.346803        -1.768669         0.536793
 C         3.117346        -0.875444         0.381902
 O         2.051973        -1.309177        -0.475943
 C         1.412197        -0.022797        -0.092328
 C        -0.056003         0.001404        -0.123255
 C         2.233432         1.067943        -0.938801
 C         3.315640         0.610424         0.044813
 O         4.599546         1.328943         0.019639
 C         2.301129         0.200124         1.128414
 H         3.987049        -2.522067         1.284592
 H         4.647774        -2.238463        -0.361427
 H         5.069331        -1.051891         1.015545
 H        -0.604367        -0.666401         0.539329
 H        -0.384480         0.979102         0.235285
 H        -0.383032        -0.093234        -1.184405
 H         2.404046         0.966382        -2.044832
 H         2.021432         2.115677        -0.637684
 H         5.154461         0.695087        -0.533406
 H         2.342577         0.509582         2.201187
