19
Iteration:  1499
 C         4.247373        -1.796577         0.776572
 C         3.152969        -0.831346         0.212092
 O         1.983441        -1.272485        -0.492474
 C         1.432692         0.012906        -0.054393
 C        -0.059176        -0.029343        -0.051737
 C         2.058110         1.008893        -1.000212
 C         3.453457         0.647454        -0.171780
 O         4.665195         1.259561         0.042939
 C         2.523459         0.180042         1.057121
 H         3.604819        -2.659664         1.184386
 H         5.105947        -2.132021         0.144169
 H         4.800913        -1.166945         1.489618
 H        -0.491562        -0.891057         0.441379
 H        -0.473285         0.746123         0.469937
 H        -0.282633         0.263216        -1.072125
 H         1.907363         0.817528        -2.114944
 H         1.692797         1.955545        -0.733649
 H         4.472553         2.055783         0.529500
 H         2.315159         0.473860         2.092710
