19
Iteration:  1205charge 0 multiplicity 1
 C         4.214842        -1.809160         0.633053
 C         3.256513        -0.815167         0.265294
 O         2.025207        -1.302062        -0.460608
 C         1.390267        -0.007027        -0.124237
 C        -0.098439        -0.052028         0.022315
 C         2.202314         1.126836        -1.089546
 C         3.370099         0.758139        -0.102537
 O         4.610293         1.246936         0.110612
 C         2.469117         0.163991         1.027855
 H         3.786789        -2.508778         1.356227
 H         4.323660        -2.481852        -0.177623
 H         5.037168        -1.398174         1.267419
 H        -0.395712        -0.380541         1.052349
 H        -0.529517         0.915357        -0.351240
 H        -0.566659        -0.842684        -0.682364
 H         2.294916         0.694890        -2.152166
 H         1.935103         2.173396        -0.963356
 H         4.515940         1.788131         0.914100
 H         2.508581         0.104455         2.201851
