19
Iteration:  4871
 C         4.325415        -1.699495         0.729701
 C         3.139294        -0.889698         0.193002
 O         2.005432        -1.381792        -0.499373
 C         1.384891        -0.037364        -0.144414
 C        -0.079413         0.144638         0.022403
 C         2.229163         1.019438        -0.979755
 C         3.348358         0.609917        -0.083623
 O         4.525339         1.400336         0.091883
 C         2.475902         0.079701         1.036834
 H         3.829720        -2.658812         0.872613
 H         5.110983        -1.809192        -0.152610
 H         4.848000        -1.389746         1.708439
 H        -0.118089        -0.190579         1.019829
 H        -0.293481         1.200589         0.020768
 H        -0.751083        -0.372556        -0.733086
 H         2.123777         0.529336        -1.988068
 H         1.844425         2.074742        -1.005961
 H         5.262228         0.858381        -0.135003
 H         2.491029         0.302379         2.079394
