19
Iteration:   509
 C         4.270634        -1.879291         0.744152
 C         3.245447        -0.847733         0.279205
 O         2.067147        -1.286553        -0.506323
 C         1.428561         0.034410        -0.079001
 C        -0.090369        -0.089995        -0.050653
 C         2.085570         1.180283        -0.937047
 C         3.400186         0.678255        -0.135958
 O         4.611283         1.195995         0.033059
 C         2.398367         0.228841         0.972426
 H         3.779725        -2.766078         1.338841
 H         4.993958        -2.260354        -0.041174
 H         5.057203        -1.476311         1.438942
 H        -0.537038        -0.975365         0.455164
 H        -0.556671         0.749676         0.593795
 H        -0.438267        -0.085098        -1.067785
 H         1.917140         1.445093        -2.030978
 H         1.920874         2.153116        -0.486204
 H         4.505398         2.137195         0.244144
 H         2.376751         0.429385         2.059503
