19
Iteration:  4518charge 0 multiplicity 1
 C         4.266461        -1.924874         0.662858
 C         3.211864        -0.781732         0.329097
 O         2.001139        -1.222597        -0.396376
 C         1.376990         0.057231        -0.091696
 C        -0.079092        -0.118761        -0.074117
 C         2.220772         1.014319        -1.054632
 C         3.348350         0.715989        -0.066449
 O         4.530632         1.363926         0.044303
 C         2.463627         0.211509         1.098379
 H         3.860057        -2.673127         1.401462
 H         4.592123        -2.398165        -0.203075
 H         5.113233        -1.559799         1.219793
 H        -0.329474        -0.697086         0.868180
 H        -0.479460         0.861643        -0.231543
 H        -0.231089        -0.676921        -0.961031
 H         2.483134         0.860575        -2.111077
 H         1.953234         2.095764        -0.989974
 H         5.080915         0.909051        -0.647005
 H         2.463382         0.510580         2.111862
