19
Iteration:  1192charge 0 multiplicity 1
 C         4.176554        -1.861630         0.662429
 C         3.108592        -0.816859         0.271864
 O         2.018133        -1.291557        -0.550981
 C         1.460962         0.052796        -0.177412
 C        -0.019062        -0.082015         0.056539
 C         2.263593         1.018760        -1.022001
 C         3.363956         0.680643        -0.041707
 O         4.635017         1.338340         0.059283
 C         2.390802         0.191154         1.070553
 H         3.771470        -2.551757         1.475582
 H         4.525711        -2.325955        -0.225673
 H         5.160650        -1.365990         0.848442
 H        -0.135333        -0.336870         1.107743
 H        -0.673863         0.833796        -0.019757
 H        -0.372809        -0.945057        -0.530801
 H         2.396976         0.842261        -2.093694
 H         1.908726         2.098432        -0.945448
 H         4.671835         1.994014         0.780128
 H         2.083571         0.381158         2.076919
