19
Iteration:  1119charge 0 multiplicity 1
 C         4.288500        -1.720331         0.643016
 C         3.164084        -0.790115         0.259826
 O         2.027285        -1.343423        -0.438263
 C         1.399038        -0.057740        -0.022529
 C        -0.184325         0.056877        -0.191296
 C         2.145323         0.988972        -0.888776
 C         3.403113         0.598334        -0.066239
 O         4.653051         1.224697         0.017712
 C         2.504227         0.229428         1.082137
 H         3.873217        -2.531602         1.196874
 H         4.873673        -2.023143        -0.286158
 H         5.069567        -1.193096         1.294946
 H        -0.749469        -0.931827        -0.063086
 H        -0.598967         0.799581         0.504428
 H        -0.454064         0.240555        -1.279688
 H         2.209017         0.960086        -2.034821
 H         1.692990         1.923354        -0.587788
 H         4.554990         2.077107         0.448582
 H         2.737559         0.469542         2.199984
