19
Iteration:  3665
 C         4.244184        -1.788653         0.812065
 C         3.175093        -0.871013         0.280953
 O         2.039160        -1.392462        -0.356006
 C         1.405535         0.144132        -0.091682
 C        -0.058123        -0.053231        -0.034522
 C         2.215356         1.007970        -1.024225
 C         3.341926         0.642745        -0.153848
 O         4.604685         1.281149        -0.065282
 C         2.408032         0.273587         0.991560
 H         3.840523        -2.729958         1.273939
 H         4.737000        -2.111672        -0.129153
 H         4.938239        -1.370422         1.469500
 H        -0.241402        -1.098581         0.201941
 H        -0.655916         0.610903         0.563606
 H        -0.530149        -0.014951        -1.141689
 H         2.562331         1.105174        -2.018170
 H         2.113527         2.055779        -0.732805
 H         4.462683         2.129838         0.344557
 H         2.417378         0.499669         2.000289
