19
Iteration:  1335
 C         4.182830        -1.789079         0.709746
 C         3.151938        -0.886155         0.266252
 O         1.998061        -1.296913        -0.501133
 C         1.420424         0.003617        -0.153798
 C        -0.140521        -0.073317         0.047645
 C         2.200305         1.063597        -1.027500
 C         3.429441         0.599836        -0.099261
 O         4.658080         1.362449         0.038558
 C         2.505560         0.196738         1.003515
 H         3.642887        -2.493444         1.427725
 H         4.762184        -2.257832        -0.105324
 H         4.991910        -1.172251         1.239890
 H        -0.397467        -1.038952         0.488774
 H        -0.448005         0.695834         0.722795
 H        -0.426619         0.142809        -0.991665
 H         2.247861         0.970059        -2.159738
 H         1.930219         2.066966        -0.708818
 H         4.681543         1.863522         0.890555
 H         2.250376         0.355317         2.084765
