19
Iteration:  4220charge 0 multiplicity 1
 C         4.340810        -1.789561         0.689571
 C         3.161821        -0.844079         0.221981
 O         1.950802        -1.358711        -0.319704
 C         1.416536        -0.012348        -0.107259
 C        -0.166503         0.043778        -0.125302
 C         2.189189         0.886589        -1.057567
 C         3.407794         0.660392        -0.098491
 O         4.648332         1.336809         0.064963
 C         2.455441         0.273164         1.022599
 H         3.963526        -2.542966         1.355417
 H         5.005616        -2.053599        -0.107588
 H         4.965272        -1.024235         1.287088
 H        -0.576016        -0.759946         0.371162
 H        -0.468633         0.789734         0.603297
 H        -0.581979         0.137644        -1.154368
 H         2.288755         0.558166        -2.103626
 H         1.837364         1.890551        -0.962241
 H         4.457513         2.163738         0.608563
 H         2.591636         0.137102         2.088166
