19
Iteration:  3585charge 0 multiplicity 1
 C         4.334559        -1.756537         0.682690
 C         3.259584        -0.848190         0.288423
 O         1.916039        -1.391567        -0.405281
 C         1.441066        -0.026728        -0.159192
 C        -0.139331        -0.002617        -0.083369
 C         2.228017         0.954570        -0.960456
 C         3.393908         0.671249        -0.040113
 O         4.600802         1.245789         0.063889
 C         2.406068         0.339949         0.993001
 H         3.895647        -2.404557         1.420545
 H         4.675793        -2.377783        -0.154201
 H         5.273592        -1.146745         0.887829
 H        -0.440193        -0.306817         0.945516
 H        -0.635328         0.948670        -0.153634
 H        -0.589080        -0.560797        -0.919673
 H         2.396185         0.770419        -2.029102
 H         1.875918         1.954128        -0.721359
 H         4.707584         2.175350        -0.039892
 H         2.213794         0.855056         2.034592
