19
Iteration:  3950charge 0 multiplicity 1
 C         4.281026        -1.874112         0.672014
 C         3.253756        -0.823050         0.294280
 O         2.052373        -1.300967        -0.312153
 C         1.439712        -0.029491        -0.158492
 C        -0.094080        -0.003349        -0.070086
 C         2.148629         0.975112        -1.045255
 C         3.375239         0.631905        -0.133753
 O         4.599251         1.287262         0.103843
 C         2.411163         0.339189         0.996622
 H         3.885721        -2.525829         1.469366
 H         4.417989        -2.549265        -0.211062
 H         5.224088        -1.273296         1.003091
 H        -0.379017        -0.485681         0.847958
 H        -0.505946         1.018653        -0.309196
 H        -0.569579        -0.710994        -0.822482
 H         2.003060         0.931436        -2.174261
 H         1.716778         1.998402        -0.683716
 H         4.449019         2.231325        -0.043496
 H         2.284329         0.551963         2.055902
