19
Iteration:  3537charge 0 multiplicity 1
 C         4.333544        -1.729686         0.624935
 C         3.101441        -0.882142         0.310168
 O         2.033391        -1.325254        -0.363722
 C         1.375362         0.071211        -0.112086
 C        -0.095622        -0.053969        -0.171139
 C         2.245412         0.971639        -0.961453
 C         3.318159         0.639665         0.030862
 O         4.702402         1.208910        -0.105475
 C         2.329873         0.341112         1.167502
 H         3.808261        -2.519750         1.233869
 H         4.834726        -2.273182        -0.206293
 H         5.171228        -1.217233         1.105755
 H        -0.360526        -0.712445         0.618104
 H        -0.704582         0.869665        -0.016012
 H        -0.344381        -0.431558        -1.118318
 H         2.350306         0.531098        -1.999299
 H         1.914897         2.040109        -0.829441
 H         4.652162         2.081993         0.376865
 H         2.338256         0.759607         2.134503
