19
Iteration:  4533
 C         4.178678        -1.786437         0.604763
 C         3.141407        -0.862823         0.379302
 O         2.055534        -1.354761        -0.432866
 C         1.473950         0.023931        -0.115038
 C        -0.065350        -0.039718        -0.056057
 C         2.248916         0.975343        -1.013745
 C         3.379322         0.659125        -0.031277
 O         4.574215         1.426878         0.045495
 C         2.430045         0.300269         1.078508
 H         3.772794        -2.633481         1.156142
 H         4.288946        -2.279000        -0.476930
 H         5.170140        -1.381278         0.873626
 H        -0.389597        -0.661469         0.755897
 H        -0.759573         0.820933         0.095672
 H        -0.550731        -0.663163        -0.920770
 H         2.161961         0.428710        -1.957446
 H         1.845866         1.973866        -1.021921
 H         5.351076         0.902464        -0.120942
 H         2.322133         0.679503         2.121998
