19
Iteration:    80charge 0 multiplicity 1
 C         4.319398        -1.841449         0.549366
 C         3.206816        -0.838746         0.270893
 O         1.977219        -1.327083        -0.414310
 C         1.386025        -0.027291        -0.081532
 C        -0.116719         0.045738        -0.077053
 C         2.166069         1.008675        -1.045853
 C         3.373568         0.717670        -0.037623
 O         4.574091         1.394371         0.180127
 C         2.525831         0.153119         1.096852
 H         3.807981        -2.651097         1.158795
 H         4.654010        -2.281475        -0.368303
 H         5.195538        -1.366101         1.140672
 H        -0.636373        -0.650948         0.598094
 H        -0.532092         1.009027         0.124052
 H        -0.331726        -0.207696        -1.194576
 H         2.222889         0.816356        -2.136997
 H         1.720799         2.034351        -0.930754
 H         5.226275         1.035392        -0.436287
 H         2.248774         0.145267         2.161510
