19
Iteration:  3141charge 0 multiplicity 1
 C         4.321412        -1.805967         0.754738
 C         3.187008        -0.924232         0.282415
 O         1.959023        -1.313970        -0.376682
 C         1.430653         0.044429        -0.077075
 C        -0.086902        -0.006217        -0.049512
 C         2.238895         1.078843        -1.136714
 C         3.364682         0.569932        -0.148292
 O         4.571720         1.285462         0.048269
 C         2.457047         0.254211         1.041579
 H         4.055722        -2.574264         1.470763
 H         4.728674        -2.285976        -0.126611
 H         5.234710        -1.291858         1.199856
 H        -0.345467        -0.773341         0.731493
 H        -0.577749         0.866810         0.307462
 H        -0.618117         0.027422        -1.087943
 H         2.040364         0.622753        -2.111106
 H         2.118406         2.134390        -1.110864
 H         4.259354         2.111233         0.386450
 H         2.389320         0.646542         2.046713
