19
Iteration:  4853charge 0 multiplicity 1
 C         4.298636        -1.854801         0.748923
 C         3.199449        -0.929649         0.224054
 O         2.052031        -1.289894        -0.517338
 C         1.455463         0.015688        -0.110755
 C        -0.120927         0.055184         0.079274
 C         2.164589         1.016401        -1.027501
 C         3.423310         0.639058        -0.112659
 O         4.506664         1.387280         0.028855
 C         2.398734         0.198203         1.027166
 H         3.965699        -2.812934         1.142860
 H         5.005271        -1.947619        -0.029827
 H         4.714827        -1.393250         1.677531
 H        -0.560016        -0.679769         0.919318
 H        -0.482419         1.114095         0.207239
 H        -0.386000        -0.346795        -0.864377
 H         2.283749         1.075784        -2.115678
 H         1.910048         2.040541        -0.655940
 H         5.275696         0.861929        -0.089839
 H         2.229310         0.418401         2.132988
