19
Iteration:  1891charge 0 multiplicity 1
 C         4.185066        -1.814149         0.767376
 C         3.223677        -0.829508         0.219976
 O         2.133625        -1.244627        -0.516014
 C         1.364976         0.026176        -0.156484
 C        -0.077122         0.001435         0.022409
 C         2.221084         1.033560        -0.949905
 C         3.363828         0.625116        -0.061675
 O         4.597729         1.259192        -0.094345
 C         2.381468         0.165461         1.074815
 H         3.533583        -2.484508         1.508218
 H         4.924534        -2.311182         0.087915
 H         4.689035        -1.373263         1.618824
 H        -0.252046        -0.799165         0.845501
 H        -0.493604         0.905334         0.454323
 H        -0.678331        -0.238500        -0.853207
 H         2.289302         0.811071        -2.062068
 H         2.069983         2.088770        -0.895756
 H         4.563773         2.078083         0.435543
 H         2.431466         0.158005         2.070824
