19
Iteration:  2220
 C         4.263737        -1.898567         0.809706
 C         3.184363        -0.886472         0.194645
 O         2.020157        -1.257055        -0.444057
 C         1.418759         0.071840        -0.075958
 C        -0.142452        -0.082328        -0.059359
 C         2.134181         1.104678        -0.980915
 C         3.412826         0.616911        -0.184654
 O         4.643173         1.250915         0.029315
 C         2.483741         0.270876         1.037521
 H         3.777272        -2.542962         1.603649
 H         4.715063        -2.559935         0.041986
 H         5.033037        -1.360234         1.345038
 H        -0.146100        -0.742075         0.726921
 H        -0.670622         0.852730         0.400659
 H        -0.584702        -0.382002        -1.108952
 H         2.149170         0.865532        -2.118001
 H         1.728924         2.102168        -0.862425
 H         4.440719         2.201942         0.219840
 H         2.616290         0.861044         1.947851
