19
Iteration:   173
 C         4.229157        -1.784125         0.668965
 C         3.214926        -0.802698         0.228715
 O         2.099369        -1.240342        -0.473858
 C         1.398053         0.056963        -0.106129
 C        -0.108738        -0.082501        -0.092505
 C         2.095382         1.051577        -0.933600
 C         3.347681         0.718630        -0.055442
 O         4.659491         1.247275         0.136016
 C         2.451369         0.164495         1.052559
 H         3.526471        -2.423781         1.199234
 H         4.649286        -2.508872        -0.183686
 H         4.925369        -1.397771         1.360866
 H        -0.385284        -0.913690         0.620942
 H        -0.601607         0.873532         0.373211
 H        -0.591054        -0.138356        -1.041921
 H         2.235217         0.660741        -1.956886
 H         1.712206         2.054578        -0.995207
 H         5.081864         1.278878        -0.759858
 H         2.507413         0.109119         2.102124
