19
Iteration:   131charge 0 multiplicity 1
 C         4.223533        -1.993151         0.736365
 C         3.106876        -0.961939         0.287342
 O         2.035300        -1.293179        -0.515907
 C         1.399601         0.122553        -0.277419
 C        -0.010469        -0.062131         0.059319
 C         2.213602         1.153369        -1.058539
 C         3.407487         0.656204        -0.085826
 O         4.528026         1.480185         0.159844
 C         2.446602         0.140255         1.031865
 H         3.817308        -2.842087         1.213327
 H         4.845631        -2.298992        -0.119769
 H         4.814124        -1.411476         1.376540
 H         0.089089        -0.781020         0.856021
 H        -0.473807         0.781820         0.551703
 H        -0.640116        -0.403093        -0.696496
 H         2.119187         1.079938        -2.122759
 H         2.008702         2.177741        -0.765232
 H         5.220056         1.245605        -0.524469
 H         2.464035         0.371335         2.066813
