19
Iteration:  4580charge 0 multiplicity 1
 C         4.361035        -1.732191         0.634601
 C         3.151318        -0.898681         0.264578
 O         2.082900        -1.463786        -0.435229
 C         1.366445         0.156159        -0.098410
 C        -0.067577         0.113726        -0.025482
 C         2.180886         0.913581        -1.044953
 C         3.265331         0.662291        -0.097054
 O         4.512729         1.315115         0.052087
 C         2.477082         0.232715         1.082391
 H         4.117264        -2.419707         1.465343
 H         4.801755        -2.352547        -0.175949
 H         5.139993        -0.948183         0.962106
 H        -0.544410        -0.783234         0.411393
 H        -0.514653         0.960650         0.565933
 H        -0.502623         0.211210        -0.995579
 H         2.374512         0.565619        -2.059048
 H         1.993894         2.004857        -1.019735
 H         5.134155         0.827531         0.665495
 H         2.379732         0.505564         2.176683
