19
Iteration:   781
 C         4.331476        -1.748901         0.562894
 C         3.142929        -0.816648         0.260946
 O         1.980750        -1.166992        -0.478448
 C         1.369657         0.043202        -0.104419
 C        -0.113572        -0.141306        -0.061720
 C         2.218952         1.045119        -1.052254
 C         3.338755         0.608684        -0.030431
 O         4.598681         1.203194         0.161780
 C         2.521106         0.189341         1.147192
 H         4.129721        -2.547580         1.377886
 H         4.365429        -2.389962        -0.311625
 H         5.238000        -1.092008         0.652168
 H        -0.387668        -0.392421         0.942452
 H        -0.703989         0.780884        -0.367403
 H        -0.458615        -0.806379        -0.909886
 H         2.307310         0.646618        -2.112591
 H         1.908443         2.079634        -0.902586
 H         4.590231         2.144173         0.311335
 H         2.756725         0.409038         2.183837
