19
Iteration:  4568charge 0 multiplicity 1
 C         4.395157        -1.770434         0.611488
 C         3.201827        -0.832913         0.306240
 O         2.005791        -1.425901        -0.381441
 C         1.394446         0.028864        -0.120515
 C        -0.150895         0.098021        -0.022732
 C         2.259083         1.007547        -1.116056
 C         3.356301         0.675401        -0.033150
 O         4.492102         1.331245         0.068075
 C         2.426455         0.213808         1.046323
 H         4.140161        -2.480883         1.377052
 H         4.554360        -2.319147        -0.398291
 H         5.413256        -1.375563         0.985088
 H        -0.242750        -0.772177         0.591822
 H        -0.372429         1.011201         0.578396
 H        -0.702150         0.019563        -0.990593
 H         2.369968         0.528426        -2.087838
 H         1.743775         1.961707        -1.252347
 H         5.095623         0.772991         0.552264
 H         2.169334         0.693620         2.058686
