19
Iteration:  2505
 C         4.271308        -1.711632         0.671864
 C         3.141164        -0.888752         0.123259
 O         1.930190        -1.440606        -0.346915
 C         1.363819         0.033095        -0.064733
 C        -0.107987         0.007573        -0.045402
 C         2.234670         0.987686        -0.998731
 C         3.432277         0.601874        -0.120742
 O         4.665673         1.240298         0.105592
 C         2.487148         0.375691         1.034032
 H         3.979787        -2.718408         0.926414
 H         4.927469        -1.957855        -0.189121
 H         4.950484        -1.155304         1.419462
 H        -0.554050        -0.510135         0.714604
 H        -0.541430         1.016251         0.028904
 H        -0.557949        -0.279977        -1.097823
 H         2.322556         1.007649        -2.084972
 H         1.744737         1.872502        -0.721719
 H         4.343901         2.193449         0.017648
 H         2.713199         0.424478         2.115844
