19
Iteration:  4385
 C         4.341877        -1.798523         0.633959
 C         3.149147        -0.880958         0.322071
 O         2.033559        -1.277669        -0.279165
 C         1.345582        -0.011798        -0.109731
 C        -0.151148        -0.010236        -0.162516
 C         2.241112         0.935395        -1.043416
 C         3.427020         0.616994        -0.102095
 O         4.567235         1.310492         0.047474
 C         2.448080         0.315529         1.010572
 H         4.243783        -2.429480         1.532241
 H         4.578808        -2.401408        -0.207336
 H         5.330530        -1.227751         0.686869
 H        -0.614565        -0.890354         0.358324
 H        -0.512336         0.866936         0.448089
 H        -0.558638        -0.006689        -1.126063
 H         2.145840         0.644837        -2.099867
 H         1.849191         1.957711        -0.871627
 H         4.495937         2.014305         0.728634
 H         2.538881         0.513493         2.131270
