19
Iteration:  3123
 C         4.156642        -1.800111         0.708822
 C         3.167372        -0.833875         0.279669
 O         1.971583        -1.308554        -0.412316
 C         1.373346        -0.017279        -0.166545
 C        -0.044610        -0.016327         0.030971
 C         2.302862         0.895121        -1.018891
 C         3.390203         0.663131        -0.126182
 O         4.632077         1.366633         0.025213
 C         2.492349         0.255833         1.020067
 H         3.615690        -2.542236         1.381707
 H         4.742462        -2.446913         0.005852
 H         4.793433        -1.265893         1.379095
 H        -0.195117        -1.009936         0.478597
 H        -0.632592         0.865691         0.545464
 H        -0.537667        -0.054134        -0.930406
 H         2.351208         0.675699        -2.172714
 H         1.908053         1.965232        -0.886360
 H         4.475006         2.298774         0.047680
 H         2.496607         0.391664         2.064743
