19
Iteration:   366
 C         4.277715        -1.706349         0.537578
 C         3.138654        -0.927201         0.330799
 O         2.035447        -1.314586        -0.414795
 C         1.397583         0.110352        -0.165689
 C        -0.068254        -0.016641        -0.073775
 C         2.321223         1.078257        -0.957315
 C         3.360353         0.618406         0.026952
 O         4.593285         1.226325        -0.026711
 C         2.351517         0.109450         1.125106
 H         4.176096        -2.488973         1.442736
 H         4.759662        -2.105935        -0.407026
 H         5.035769        -1.045580         1.004781
 H        -0.471971        -0.786626         0.611134
 H        -0.525890         0.883753         0.430047
 H        -0.375031        -0.168843        -1.062588
 H         2.367443         1.093711        -2.094700
 H         1.781147         1.986763        -0.727644
 H         4.412891         2.104616         0.304522
 H         2.166470         0.300641         2.135049
