19
Iteration:   122charge 0 multiplicity 1
 C         4.184807        -1.998981         0.710808
 C         3.238266        -0.888817         0.256311
 O         2.064532        -1.292383        -0.566165
 C         1.468480         0.070801        -0.183854
 C        -0.029700        -0.011306         0.113223
 C         2.209093         1.077478        -1.109889
 C         3.371762         0.651958        -0.058662
 O         4.505160         1.479385         0.149024
 C         2.387273         0.159408         1.062028
 H         3.796730        -2.916353         1.175471
 H         4.631803        -2.241780        -0.168628
 H         4.923618        -1.494976         1.399855
 H        -0.197898        -0.729687         0.880251
 H        -0.412549         0.900462         0.362246
 H        -0.672626        -0.320916        -0.742087
 H         2.193607         1.032359        -2.188717
 H         2.008085         2.131529        -0.789547
 H         5.292789         1.182615        -0.397863
 H         2.090188         0.312464         2.120038
