19
Iteration:  4263charge 0 multiplicity 1
 C         4.236656        -1.773172         0.603250
 C         3.131496        -0.843399         0.391389
 O         2.129719        -1.292044        -0.385538
 C         1.425882        -0.035637        -0.170435
 C        -0.067493         0.013341        -0.044247
 C         2.220673         0.872059        -1.059875
 C         3.320304         0.589440        -0.052485
 O         4.611792         1.319578        -0.052142
 C         2.367590         0.376140         1.109272
 H         4.067083        -2.762035         0.932665
 H         4.925864        -1.765867        -0.205673
 H         4.800151        -1.512473         1.547809
 H        -0.483068        -0.618487         0.633226
 H        -0.340607         0.971716         0.351347
 H        -0.559469        -0.149647        -1.047941
 H         2.196243         0.539740        -2.119359
 H         1.852759         1.853398        -0.890354
 H         4.840826         1.707717         0.856030
 H         1.948765         0.475761         2.075356
