19
Iteration:  2644
 C         4.304918        -1.719282         0.493581
 C         3.099807        -0.861297         0.413672
 O         1.990574        -1.420974        -0.386508
 C         1.406904        -0.065342        -0.111464
 C        -0.079183         0.107284        -0.056074
 C         2.299299         0.935474        -1.026075
 C         3.345361         0.777160        -0.020462
 O         4.639692         1.237778        -0.026070
 C         2.357036         0.160902         1.157430
 H         4.038977        -2.648991         0.962580
 H         4.951573        -1.914253        -0.339244
 H         4.931290        -1.078074         1.240412
 H        -0.400645        -0.402541         0.860364
 H        -0.311068         1.230824         0.154843
 H        -0.518571        -0.065249        -0.992037
 H         2.560821         0.603190        -2.097985
 H         2.066861         2.074322        -1.158383
 H         4.743040         2.145622         0.250592
 H         1.772004         0.517877         1.974818
