19
Iteration:   546
 C         4.238736        -1.729971         0.510935
 C         3.105293        -0.841054         0.299773
 O         1.990748        -1.306198        -0.453207
 C         1.395293         0.012138        -0.038944
 C        -0.042895        -0.035809        -0.057341
 C         2.293259         0.928171        -1.015425
 C         3.379949         0.722860         0.032627
 O         4.656859         1.294017         0.035734
 C         2.363552         0.217476         1.127391
 H         3.985881        -2.637152         0.974273
 H         4.514956        -1.994461        -0.568359
 H         5.049643        -1.168630         1.080760
 H        -0.409664        -0.880739         0.519353
 H        -0.541532         0.812655         0.275164
 H        -0.172191        -0.164233        -1.165990
 H         2.284720         0.302328        -1.859116
 H         1.955228         1.982224        -1.067741
 H         4.769383         2.195182         0.441776
 H         2.134004         0.028929         2.203367
