19
Iteration:  2483
 C         4.387929        -1.678524         0.621084
 C         3.169825        -0.827939         0.314562
 O         1.956696        -1.280099        -0.375024
 C         1.358958         0.028598        -0.062473
 C        -0.103176         0.050501        -0.061680
 C         2.183075         0.962363        -1.075307
 C         3.402047         0.633147        -0.131064
 O         4.628083         1.124957         0.071013
 C         2.444040         0.196603         1.058211
 H         4.080157        -2.704283         0.861398
 H         5.076744        -1.763093        -0.234506
 H         4.978207        -1.275277         1.517566
 H        -0.455678        -0.549839         0.716421
 H        -0.454895         1.057706         0.193728
 H        -0.628841        -0.250480        -1.051556
 H         2.039579         0.553409        -2.086468
 H         1.902685         1.998247        -1.116253
 H         4.473766         1.961493         0.491883
 H         2.251019         0.633836         2.072017
