19
Iteration:  3978charge 0 multiplicity 1
 C         4.193879        -1.808390         0.746574
 C         3.140516        -0.815563         0.315178
 O         2.072148        -1.272484        -0.453991
 C         1.489032        -0.011397        -0.116532
 C        -0.155495        -0.121790        -0.077796
 C         2.273240         1.059036        -0.967336
 C         3.331047         0.687025        -0.031890
 O         4.667964         1.281280        -0.118772
 C         2.406641         0.227677         1.116329
 H         3.891218        -2.338023         1.670804
 H         4.173447        -2.471357        -0.095413
 H         4.973379        -1.184163         0.974113
 H        -0.541723        -0.753010         0.761140
 H        -0.573386         0.853331        -0.128452
 H        -0.365786        -0.740715        -0.982345
 H         2.345067         0.702106        -1.962964
 H         1.790248         1.965482        -0.802514
 H         4.601616         2.260929         0.069212
 H         2.455326         0.530273         2.299279
