19
Iteration:  2776
 C         4.201062        -1.747824         0.707015
 C         3.157627        -0.760953         0.236864
 O         1.978826        -1.362287        -0.436901
 C         1.433297        -0.075103        -0.133836
 C        -0.068099        -0.011350        -0.023288
 C         2.200458         1.050539        -0.981229
 C         3.383054         0.667522        -0.162925
 O         4.619374         1.235157         0.084065
 C         2.555330         0.212536         1.031815
 H         3.898215        -2.210330         1.668014
 H         4.415014        -2.544643        -0.033677
 H         5.140834        -1.227577         0.978946
 H        -0.598915        -0.805717         0.433550
 H        -0.385291         0.995140         0.318144
 H        -0.462784        -0.171850        -1.054981
 H         2.157385         1.012605        -2.130217
 H         1.593135         1.974852        -0.654959
 H         4.751170         2.109332         0.394865
 H         2.302266         0.435381         2.087519
