19
Iteration:    46
 C         4.306318        -1.649555         0.493140
 C         3.114127        -0.908740         0.420982
 O         2.026627        -1.261555        -0.422235
 C         1.411352         0.040253        -0.149678
 C        -0.174788        -0.064018        -0.160991
 C         2.239967         1.069469        -0.940661
 C         3.356709         0.569272        -0.033503
 O         4.581372         1.195345         0.100100
 C         2.521043         0.246389         1.179576
 H         4.104114        -2.508062         1.220804
 H         4.496014        -2.097198        -0.428559
 H         5.173215        -1.083302         0.960525
 H        -0.536507        -0.934486         0.359457
 H        -0.661309         0.817448         0.049359
 H        -0.518787        -0.333519        -1.256674
 H         2.267679         1.233868        -2.026671
 H         2.036447         2.015517        -0.383235
 H         4.898005         1.353770        -0.774846
 H         2.445237         0.520988         2.197584
