19
Iteration:  4287charge 0 multiplicity 1
 C         4.289262        -1.733041         0.770348
 C         3.218298        -0.761560         0.253208
 O         1.966433        -1.349191        -0.417518
 C         1.307888         0.066677        -0.137251
 C        -0.110139        -0.087394        -0.072866
 C         2.232027         0.984391        -1.020445
 C         3.314116         0.704979        -0.093543
 O         4.668224         1.261341        -0.025419
 C         2.454253         0.215084         1.052789
 H         3.772075        -2.667704         1.043508
 H         4.883137        -1.942930        -0.099171
 H         5.037521        -1.737911         1.659689
 H        -0.353117        -0.507295         0.909950
 H        -0.709855         0.867587         0.059484
 H        -0.425707        -0.678517        -0.915974
 H         2.487503         0.692436        -2.025104
 H         1.907038         2.025661        -0.948434
 H         4.830099         1.786108         0.782388
 H         2.674761         0.465550         2.043692
