19
Iteration:  3696
 C         4.255379        -1.717389         0.744185
 C         3.150180        -0.805492         0.345090
 O         2.043247        -1.278696        -0.433697
 C         1.331304         0.048195        -0.102974
 C        -0.147747        -0.070450        -0.105013
 C         2.135152         0.917901        -1.011895
 C         3.364211         0.678481        -0.055881
 O         4.743486         1.227579        -0.031752
 C         2.457916         0.219264         1.106389
 H         3.962782        -2.653085         1.309686
 H         4.769986        -2.002500        -0.216641
 H         4.954800        -1.185180         1.352324
 H        -0.505797        -0.952101         0.406795
 H        -0.556093         0.731382         0.406079
 H        -0.529145        -0.081525        -1.164346
 H         2.390724         0.635638        -2.039114
 H         1.801926         1.967368        -0.920962
 H         4.835815         2.165142        -0.361825
 H         2.462835         0.508301         2.097520
