19
Iteration:  3560charge 0 multiplicity 1
 C         4.256230        -1.713776         0.629987
 C         3.180461        -0.817559         0.442147
 O         2.063377        -1.266375        -0.358738
 C         1.428743        -0.008631        -0.053004
 C        -0.133995        -0.056531        -0.140875
 C         2.183154         0.992798        -1.101891
 C         3.360414         0.699431        -0.092835
 O         4.645999         1.169302         0.017795
 C         2.384111         0.216584         1.106106
 H         3.901654        -2.525320         1.279698
 H         4.546326        -2.164773        -0.337856
 H         5.184481        -1.119529         0.916194
 H        -0.694145        -0.378340         0.712885
 H        -0.470044         1.023454        -0.265964
 H        -0.377402        -0.531597        -1.003440
 H         2.262114         0.604119        -2.165144
 H         1.823803         2.029550        -0.920106
 H         4.815171         2.128678         0.023557
 H         2.480572         0.298531         2.205617
