19
Iteration:   995
 C         4.263207        -1.919065         0.628377
 C         3.200618        -0.752791         0.243510
 O         2.073865        -1.226546        -0.550969
 C         1.423290        -0.049493        -0.086827
 C        -0.123345        -0.048069        -0.061750
 C         2.257510         1.017402        -0.911309
 C         3.361211         0.728386         0.045090
 O         4.644683         1.354342        -0.056254
 C         2.332544         0.160454         1.138160
 H         3.855910        -2.611008         1.467750
 H         4.388421        -2.561666        -0.218668
 H         5.182193        -1.604346         1.074887
 H        -0.431213        -0.325977         0.989234
 H        -0.616666         1.008256        -0.323227
 H        -0.671723        -0.827142        -0.660873
 H         2.523706         0.585712        -1.883524
 H         1.750810         2.019668        -0.785370
 H         4.551928         2.200317         0.383426
 H         2.127271         0.002723         2.178429
