19
Iteration:  4564charge 0 multiplicity 1
 C         4.391412        -1.776841         0.597700
 C         3.205107        -0.815519         0.322006
 O         1.990996        -1.378776        -0.358040
 C         1.428199        -0.035345        -0.143689
 C        -0.150545         0.081972        -0.002209
 C         2.276380         1.006232        -1.118392
 C         3.354340         0.649653        -0.019826
 O         4.523832         1.366847         0.066546
 C         2.377968         0.218609         1.022990
 H         4.130311        -2.537044         1.351204
 H         4.498751        -2.297234        -0.386983
 H         5.342331        -1.435768         0.925863
 H        -0.346996        -0.786928         0.637443
 H        -0.413293         1.020351         0.484755
 H        -0.748322        -0.000649        -0.967856
 H         2.336144         0.564968        -2.129980
 H         1.776576         1.967654        -1.240486
 H         5.095076         0.694697         0.542380
 H         2.223948         0.627238         2.005840
