19
Iteration:   119
 C         4.170424        -1.972504         0.702416
 C         3.258011        -0.859791         0.257670
 O         2.075141        -1.284330        -0.584758
 C         1.472931         0.032949        -0.142242
 C        -0.044374        -0.002831         0.118489
 C         2.214726         1.051185        -1.095141
 C         3.377063         0.655832        -0.049948
 O         4.494644         1.472014         0.146968
 C         2.382293         0.171520         1.044199
 H         3.741018        -2.824110         1.148811
 H         4.686898        -2.315463        -0.263185
 H         4.926196        -1.648463         1.348590
 H        -0.332720        -0.732765         0.892017
 H        -0.357911         1.056234         0.339713
 H        -0.570836        -0.309680        -0.726606
 H         2.297485         0.910087        -2.169600
 H         1.970437         2.051106        -0.789424
 H         5.260718         1.143144        -0.360447
 H         2.017991         0.326299         2.017001
