19
Iteration:  3005charge 0 multiplicity 1
 C         4.344162        -1.687811         0.533511
 C         3.114447        -0.812008         0.439084
 O         2.098044        -1.392100        -0.377234
 C         1.399320         0.037315        -0.178324
 C        -0.033846         0.075243        -0.065268
 C         2.191858         0.940590        -1.038403
 C         3.341985         0.606559        -0.052400
 O         4.619181         1.169797         0.017038
 C         2.299253         0.271538         1.177429
 H         4.199958        -2.531742         1.268844
 H         4.283671        -2.169639        -0.488447
 H         5.290110        -1.260590         0.705039
 H        -0.399455        -0.490877         0.749052
 H        -0.322291         1.198713        -0.103052
 H        -0.500127        -0.199018        -1.033848
 H         2.355199         0.682960        -2.033590
 H         2.043659         2.005656        -1.061722
 H         4.406639         2.080752         0.291792
 H         2.013689         0.617068         2.147235
