19
Iteration:  1221
 C         4.264933        -1.813877         0.630760
 C         3.248898        -0.832050         0.115550
 O         2.024685        -1.300232        -0.422010
 C         1.383690        -0.031586        -0.051758
 C        -0.159323        -0.010398        -0.081500
 C         2.133685         0.991789        -0.972107
 C         3.396032         0.713306        -0.129600
 O         4.648519         1.216262         0.153506
 C         2.489075         0.270122         1.050056
 H         3.777367        -2.555692         1.329748
 H         4.818234        -2.423669        -0.172304
 H         5.079569        -1.279749         1.086378
 H        -0.649024        -0.237144         0.864363
 H        -0.624655         0.964418        -0.299758
 H        -0.532869        -0.568318        -0.906137
 H         2.245237         0.905327        -2.021427
 H         1.700661         2.001944        -0.681334
 H         4.526274         1.951940         0.810046
 H         2.539651         0.695738         2.005671
