19
Iteration:  1054charge 0 multiplicity 1
 C         4.285603        -1.787665         0.623846
 C         3.231068        -0.795136         0.230238
 O         2.091033        -1.304262        -0.454995
 C         1.340346         0.016915        -0.098069
 C        -0.150510        -0.007890        -0.000441
 C         2.163428         1.033229        -1.056058
 C         3.359670         0.688834        -0.138229
 O         4.701082         1.195327         0.155300
 C         2.365506         0.208582         1.076842
 H         3.684453        -2.550042         1.069886
 H         4.919875        -2.128794        -0.248437
 H         5.073501        -1.294655         1.260047
 H        -0.451017        -0.797321         0.711536
 H        -0.638176         0.871667         0.341754
 H        -0.486801        -0.268779        -1.044960
 H         2.134892         0.788127        -2.151659
 H         1.766404         2.017424        -1.011240
 H         4.513469         2.115991         0.443937
 H         2.405310         0.268538         2.225174
