19
Iteration:  2391
 C         4.125787        -1.871099         0.717766
 C         3.214797        -0.808585         0.267484
 O         2.044000        -1.324595        -0.458002
 C         1.429298         0.011396        -0.047042
 C        -0.086102        -0.021848        -0.083194
 C         2.176654         1.010879        -0.948360
 C         3.405895         0.701994        -0.149685
 O         4.662817         1.317075         0.007327
 C         2.482441         0.202185         1.077274
 H         3.646821        -2.297983         1.672486
 H         4.249441        -2.686370        -0.039695
 H         5.026928        -1.371956         1.022543
 H        -0.450893        -0.861838         0.771932
 H        -0.690676         0.939838         0.198434
 H        -0.419499        -0.322137        -1.060999
 H         1.906506         0.851258        -1.970761
 H         1.845874         2.035857        -0.704040
 H         4.694305         2.255415        -0.351694
 H         2.636052         0.442556         2.117513
