19
Iteration:  3067
 C         4.183573        -1.784369         0.804043
 C         3.142479        -0.862249         0.318981
 O         1.998550        -1.272558        -0.488574
 C         1.356194         0.045972        -0.165984
 C        -0.046467        -0.133514        -0.028060
 C         2.229886         1.077815        -0.914480
 C         3.374480         0.619674        -0.080515
 O         4.661940         1.239982        -0.120400
 C         2.477284         0.241350         1.061090
 H         3.737103        -2.624168         1.387835
 H         4.856404        -2.126533        -0.007204
 H         4.904286        -1.264614         1.496946
 H        -0.513377        -0.778367         0.755961
 H        -0.517965         0.928235         0.135928
 H        -0.314768        -0.349246        -1.112759
 H         2.450187         0.986200        -2.077533
 H         1.939568         2.130380        -0.581028
 H         4.546535         2.173956         0.162168
 H         2.465716         0.547748         2.091627
