19
Iteration:  3586
 C         4.337252        -1.752799         0.684905
 C         3.250841        -0.858929         0.296461
 O         1.910399        -1.381152        -0.411932
 C         1.450169        -0.033383        -0.153038
 C        -0.130803        -0.003690        -0.072441
 C         2.240354         0.949681        -0.963563
 C         3.388876         0.666798        -0.042343
 O         4.599181         1.254799         0.062088
 C         2.400210         0.340806         0.984244
 H         3.897057        -2.409246         1.433633
 H         4.677434        -2.382124        -0.148367
 H         5.242844        -1.157694         0.883174
 H        -0.455590        -0.299901         0.957144
 H        -0.625814         0.935419        -0.158897
 H        -0.617005        -0.562570        -0.970334
 H         2.361387         0.791843        -2.031037
 H         1.877824         1.938018        -0.708327
 H         4.735876         2.196009        -0.019784
 H         2.239878         0.825443         2.009800
