19
Iteration:   385
 C         4.340788        -1.694560         0.505230
 C         3.167671        -0.891595         0.357615
 O         1.952053        -1.286660        -0.490271
 C         1.390108        -0.011469        -0.054052
 C        -0.095135         0.013775        -0.137439
 C         2.246357         0.935292        -0.907595
 C         3.376030         0.629401        -0.068585
 O         4.589348         1.242446         0.065920
 C         2.408413         0.267571         1.139885
 H         4.327075        -2.645506         1.192259
 H         4.553709        -2.144681        -0.428334
 H         5.244062        -1.184762         0.878966
 H        -0.552274        -0.714897         0.583185
 H        -0.502032         0.939558         0.220162
 H        -0.447902        -0.178203        -1.234811
 H         2.378123         0.561573        -1.908639
 H         2.155605         2.049845        -0.898466
 H         4.523443         2.062273         0.571298
 H         2.372400         0.541940         2.252535
