19
Iteration:  3074
 C         4.179137        -1.840208         0.839242
 C         3.237180        -0.812651         0.336584
 O         2.018892        -1.268720        -0.542187
 C         1.399981         0.042366        -0.149473
 C        -0.038458        -0.110778        -0.059116
 C         2.210920         1.104834        -0.969662
 C         3.376226         0.605833        -0.058774
 O         4.607768         1.222018        -0.145732
 C         2.443312         0.251792         1.147348
 H         3.660748        -2.667420         1.272986
 H         4.734704        -2.197882        -0.015835
 H         4.968750        -1.473115         1.552840
 H        -0.249551        -0.802387         0.804845
 H        -0.346763         0.850282         0.221831
 H        -0.725557        -0.280605        -0.989768
 H         2.274253         0.997497        -2.017761
 H         1.844920         2.085453        -0.742551
 H         4.458963         2.171210         0.152313
 H         2.387399         0.729736         2.180924
