19
Iteration:  1289
 C         4.238576        -1.734724         0.599472
 C         3.160350        -0.769315         0.369975
 O         2.083001        -1.253869        -0.485372
 C         1.365967        -0.047136        -0.039591
 C        -0.121638        -0.019124        -0.104415
 C         2.209902         0.975800        -0.982294
 C         3.366894         0.675171        -0.066323
 O         4.695624         1.163781         0.015151
 C         2.365579         0.221050         1.134790
 H         3.915724        -2.780889         1.008876
 H         4.818888        -1.763751        -0.353942
 H         5.101598        -1.223219         1.170642
 H        -0.466706        -1.001399         0.226171
 H        -0.594424         0.642088         0.730960
 H        -0.396282         0.378499        -1.088118
 H         2.191205         0.678870        -2.020899
 H         1.707438         1.990851        -0.786535
 H         4.791626         2.128210        -0.074691
 H         2.179926         0.330869         2.231535
