19
Iteration:  2148
 C         4.351987        -1.710808         0.564488
 C         3.178853        -0.814155         0.316275
 O         1.966698        -1.275548        -0.345305
 C         1.375805        -0.073000        -0.082439
 C        -0.120289         0.064665        -0.079921
 C         2.253521         0.974305        -1.030706
 C         3.376511         0.536896        -0.129631
 O         4.582442         1.186550         0.088435
 C         2.444843         0.263237         1.059710
 H         4.079550        -2.391754         1.393558
 H         4.714758        -2.233298        -0.347024
 H         5.198871        -1.121705         1.092822
 H        -0.634024        -0.495480         0.795349
 H        -0.203017         1.115879         0.019697
 H        -0.415406        -0.174760        -1.094150
 H         2.333899         0.733841        -2.084323
 H         1.747022         1.996708        -0.900934
 H         4.279890         2.088549         0.225758
 H         2.506075         0.566740         2.058056
