19
Iteration:  3562
 C         4.267057        -1.722731         0.628852
 C         3.159805        -0.818209         0.416587
 O         2.087315        -1.275875        -0.334197
 C         1.410680        -0.001917        -0.064079
 C        -0.135908        -0.050316        -0.136683
 C         2.192593         1.009978        -1.113795
 C         3.329998         0.689113        -0.097310
 O         4.661427         1.174180         0.031470
 C         2.384719         0.206133         1.101745
 H         3.896155        -2.488183         1.281131
 H         4.571285        -2.214983        -0.299145
 H         5.220351        -1.137661         0.927048
 H        -0.686518        -0.348250         0.761792
 H        -0.499475         0.992068        -0.289913
 H        -0.423474        -0.504934        -1.010602
 H         2.221441         0.656145        -2.163459
 H         1.822382         2.024668        -0.953703
 H         4.797727         2.169064        -0.023687
 H         2.525661         0.293334         2.256631
