19
Iteration:  4393charge 0 multiplicity 1
 C         4.386072        -1.832455         0.627113
 C         3.246712        -0.812255         0.373350
 O         1.978554        -1.319594        -0.261298
 C         1.364661         0.001208        -0.066840
 C        -0.193824        -0.027025        -0.132776
 C         2.222252         1.016146        -1.123645
 C         3.339226         0.621973        -0.132722
 O         4.573808         1.293649         0.077100
 C         2.471187         0.256627         0.981250
 H         4.151456        -2.443730         1.425219
 H         4.652450        -2.456583        -0.187774
 H         5.192257        -1.136366         0.829304
 H        -0.584672        -0.892820         0.238471
 H        -0.392477         0.889351         0.406160
 H        -0.498896         0.119942        -1.198916
 H         2.414682         0.638781        -2.173470
 H         1.843649         2.042055        -1.065179
 H         4.527859         1.867003         0.855277
 H         2.547424         0.657849         1.973017
