19
Iteration:   176charge 0 multiplicity 1
 C         4.263291        -1.816928         0.676347
 C         3.195239        -0.780606         0.246137
 O         2.098885        -1.235230        -0.487805
 C         1.407863         0.049031        -0.120840
 C        -0.121917        -0.061750        -0.095714
 C         2.101850         1.038423        -0.920080
 C         3.329981         0.751693        -0.025000
 O         4.638126         1.227227         0.116743
 C         2.484896         0.161735         1.046320
 H         3.595756        -2.488537         1.180374
 H         4.571023        -2.372119        -0.158614
 H         5.029681        -1.353901         1.320078
 H        -0.416635        -0.801402         0.580945
 H        -0.546188         0.755195         0.334974
 H        -0.591755        -0.136133        -1.075431
 H         2.282009         0.618003        -1.864222
 H         1.615228         2.026154        -1.019610
 H         5.087752         1.201335        -0.766796
 H         2.382153         0.153408         2.182890
