19
Iteration:  2489
 C         4.362869        -1.704923         0.582289
 C         3.180709        -0.850764         0.285791
 O         1.944507        -1.273642        -0.342568
 C         1.378394        -0.014946        -0.081034
 C        -0.123983         0.069509        -0.061394
 C         2.174455         0.939183        -1.040891
 C         3.385068         0.591469        -0.145515
 O         4.638417         1.156055         0.103576
 C         2.455181         0.276094         0.998411
 H         4.103410        -2.651554         1.107542
 H         5.161084        -1.628261        -0.166570
 H         4.695316        -1.187236         1.469294
 H        -0.533430        -0.727388         0.713678
 H        -0.430948         1.129734         0.165434
 H        -0.436332        -0.354337        -0.966718
 H         2.076206         0.614601        -2.095258
 H         2.034638         2.062824        -0.897086
 H         4.545274         2.090235         0.428147
 H         2.434526         0.421545         2.071254
