19
Iteration:  2468
 C         4.362332        -1.706840         0.626164
 C         3.166652        -0.805847         0.372569
 O         2.072262        -1.349971        -0.464199
 C         1.408591         0.072095        -0.146453
 C        -0.125953         0.078564         0.001657
 C         2.209635         0.946084        -1.089165
 C         3.232104         0.657470        -0.006355
 O         4.660599         1.124538        -0.049657
 C         2.317491         0.237681         1.161740
 H         3.963326        -2.702634         0.933705
 H         4.858735        -1.605721        -0.339817
 H         5.094918        -1.444679         1.371594
 H        -0.534117        -0.790232         0.717311
 H        -0.467625         1.147343         0.267116
 H        -0.444023        -0.220742        -0.958624
 H         2.619906         0.565360        -1.988137
 H         1.793955         1.962404        -1.086253
 H         4.861653         1.868348         0.560141
 H         2.404828         0.634136         2.157813
