19
Iteration:  1950charge 0 multiplicity 1
 C         4.368670        -1.783868         0.561832
 C         3.228187        -0.797375         0.385221
 O         1.960703        -1.303941        -0.331658
 C         1.358437         0.000561        -0.031046
 C        -0.191512        -0.025742        -0.137762
 C         2.233732         1.063442        -1.074097
 C         3.295908         0.669473        -0.135042
 O         4.594116         1.156229         0.101084
 C         2.510376         0.256974         1.076276
 H         3.911681        -2.531241         1.123844
 H         4.615694        -2.303765        -0.356734
 H         5.249040        -1.237760         0.988122
 H        -0.507163        -0.792593         0.439615
 H        -0.639938         0.958366         0.043045
 H        -0.311436        -0.415398        -1.173643
 H         2.191611         0.742657        -2.105875
 H         2.132195         2.160280        -0.841582
 H         4.786746         2.088626         0.102753
 H         2.773429         0.651588         2.192899
