19
Iteration:  1914
 C         4.210705        -1.801515         0.691361
 C         3.165122        -0.824576         0.363540
 O         1.978525        -1.323586        -0.555968
 C         1.428429        -0.016447        -0.115912
 C        -0.037147        -0.062797        -0.007140
 C         2.258798         1.045345        -0.984326
 C         3.364896         0.775922         0.045860
 O         4.681559         1.228689        -0.093948
 C         2.365877         0.207670         1.097414
 H         3.854559        -2.646127         1.457559
 H         4.728436        -2.092940        -0.247746
 H         4.946423        -1.449187         1.404461
 H        -0.405100        -0.775123         0.766375
 H        -0.513759         0.865871         0.327889
 H        -0.559084        -0.291394        -0.959472
 H         2.412125         0.922687        -2.106228
 H         1.893248         2.055175        -0.925259
 H         4.606077         2.195942        -0.052346
 H         2.129491         0.410855         2.095970
