19
Iteration:   143charge 0 multiplicity 1
 C         4.180598        -1.862939         0.711283
 C         3.095149        -0.989068         0.293142
 O         1.947683        -1.282666        -0.546852
 C         1.432126         0.057917        -0.179977
 C        -0.060946        -0.139542         0.048233
 C         2.270921         1.127455        -0.920444
 C         3.433600         0.667802        -0.130657
 O         4.551538         1.425665         0.170093
 C         2.539859         0.235448         0.907083
 H         3.731393        -2.678266         1.255306
 H         4.795789        -2.299379        -0.011840
 H         4.795453        -1.421223         1.474559
 H        -0.180733        -0.983072         0.685706
 H        -0.456267         0.726368         0.448505
 H        -0.584544        -0.389595        -0.865672
 H         2.455896         1.053228        -1.966060
 H         1.858429         2.103815        -0.621596
 H         5.136624         1.376768        -0.577968
 H         2.489578         0.630194         1.919584
