19
Iteration:  1872charge 0 multiplicity 1
 C         4.186606        -1.809747         0.855743
 C         3.173101        -0.893974         0.240037
 O         1.996637        -1.309101        -0.599879
 C         1.425505        -0.046647        -0.081166
 C        -0.098651        -0.029680         0.058558
 C         2.151945         1.011804        -0.975830
 C         3.398996         0.646437        -0.184393
 O         4.683373         1.329943         0.031519
 C         2.534848         0.243813         1.010350
 H         3.603771        -2.647631         1.302467
 H         4.710086        -2.048366        -0.061616
 H         4.869505        -1.352086         1.547131
 H        -0.489648        -0.736251         0.687769
 H        -0.431678         0.971069         0.343816
 H        -0.309813        -0.097187        -1.026276
 H         2.042349         0.925547        -2.085309
 H         1.674615         1.964626        -0.744387
 H         4.602564         2.156858         0.494809
 H         2.317644         0.624254         2.004151
