19
Iteration:  4316
 C         4.194362        -1.763609         0.783389
 C         3.125350        -0.846734         0.294789
 O         2.060796        -1.248735        -0.496176
 C         1.396506         0.005503        -0.027326
 C        -0.086739        -0.146230        -0.024023
 C         2.188716         1.067602        -0.946837
 C         3.378477         0.599769        -0.183533
 O         4.686941         1.257772        -0.004816
 C         2.411700         0.197154         1.002942
 H         3.931894        -2.466439         1.544887
 H         4.819591        -2.098426        -0.046398
 H         4.926676        -1.113809         1.201101
 H        -0.617139        -0.387559         0.835408
 H        -0.386075         0.853999        -0.259070
 H        -0.290326        -0.779629        -0.934682
 H         2.260777         1.036919        -2.075429
 H         1.947713         2.053675        -0.549345
 H         4.550757         2.259688         0.023661
 H         2.324433         0.691672         1.937849
