19
Iteration:  4848charge 0 multiplicity 1
 C         4.286706        -1.858408         0.785330
 C         3.187788        -0.896999         0.200923
 O         2.054443        -1.256861        -0.517391
 C         1.432373        -0.036358        -0.101123
 C        -0.138150         0.029742         0.085484
 C         2.208856         1.019830        -0.986768
 C         3.403994         0.622009        -0.083393
 O         4.527778         1.395119         0.010855
 C         2.414104         0.225508         1.010627
 H         3.801017        -2.835587         1.022869
 H         4.927563        -2.038059        -0.163535
 H         4.865170        -1.460917         1.648911
 H        -0.410313        -0.691132         0.753479
 H        -0.582135         0.990329         0.266887
 H        -0.362417        -0.328922        -0.979515
 H         2.239099         1.021734        -2.112573
 H         1.832302         1.989693        -0.619323
 H         5.342413         0.823887        -0.154664
 H         2.211046         0.624772         1.964263
