19
Iteration:  1403
 C         4.300444        -1.842760         0.587870
 C         3.163067        -0.857695         0.270270
 O         1.920773        -1.342302        -0.348129
 C         1.426334         0.062048        -0.094096
 C        -0.179383        -0.030643        -0.139908
 C         2.166067         1.011447        -0.957368
 C         3.453074         0.664149        -0.097967
 O         4.643669         1.330897         0.085842
 C         2.554969         0.220656         1.038901
 H         3.904381        -2.507105         1.381857
 H         4.643935        -2.335013        -0.373274
 H         5.209641        -1.338474         0.948296
 H        -0.644008        -0.460675         0.766994
 H        -0.652914         0.913200        -0.282264
 H        -0.198713        -0.618214        -1.147759
 H         2.098553         0.972124        -2.098622
 H         1.844257         1.986223        -0.665770
 H         4.430046         1.991634         0.762009
 H         2.451398         0.415439         2.073361
