19
Iteration:   410
 C         4.332277        -1.767740         0.494629
 C         3.285152        -0.810866         0.211272
 O         2.066518        -1.370928        -0.278489
 C         1.372367         0.022568        -0.117755
 C        -0.142429         0.069432        -0.145175
 C         2.065318         1.002875        -1.056375
 C         3.324394         0.761522        -0.055797
 O         4.663737         1.217324         0.184136
 C         2.408498         0.145781         1.101419
 H         3.985102        -2.714066         1.173332
 H         4.560410        -2.325353        -0.480445
 H         5.288122        -1.483899         0.938190
 H        -0.522954        -0.616864         0.655430
 H        -0.691611         1.036231         0.124239
 H        -0.436092        -0.280929        -1.090844
 H         2.230214         0.695745        -2.145774
 H         1.784805         2.041834        -1.017565
 H         4.685570         2.088744         0.570082
 H         2.418906         0.494921         2.063612
