19
Iteration:  2010
 C         4.331432        -1.841186         0.635460
 C         3.167500        -0.866121         0.286504
 O         2.056381        -1.303380        -0.426770
 C         1.402323        -0.016913        -0.163177
 C        -0.103461         0.078175        -0.035890
 C         2.262352         0.954960        -1.007600
 C         3.327261         0.696235         0.024919
 O         4.560877         1.255282        -0.033945
 C         2.389642         0.232216         1.057593
 H         4.060402        -2.465878         1.550022
 H         4.825271        -2.429342        -0.139462
 H         5.106714        -1.295553         1.129068
 H        -0.438296        -0.558296         0.921038
 H        -0.504497         1.068969         0.194890
 H        -0.738656        -0.178988        -0.879719
 H         2.332196         0.723645        -2.122922
 H         2.060103         2.031078        -0.956343
 H         4.715126         2.014040         0.578706
 H         2.111112         0.570805         1.973959
