19
Iteration:   316
 C         4.111662        -1.838338         0.745265
 C         3.212227        -0.828813         0.206645
 O         2.055322        -1.222294        -0.547694
 C         1.377093         0.025180        -0.053526
 C        -0.050583        -0.112413        -0.000726
 C         2.197962         1.123088        -0.960749
 C         3.390016         0.651392        -0.139408
 O         4.609395         1.277465         0.053976
 C         2.526439         0.141553         1.040582
 H         3.751618        -2.689113         1.243558
 H         4.708794        -2.280094        -0.099588
 H         4.815910        -1.286481         1.364375
 H        -0.281291        -0.896488         0.735665
 H        -0.438565         0.854133         0.463098
 H        -0.511608        -0.322797        -1.051824
 H         2.094841         0.781743        -1.983883
 H         1.955261         2.217148        -0.893709
 H         4.371654         2.210940         0.343189
 H         2.455303         0.154510         2.172305
