19
Iteration:  2123charge 0 multiplicity 1
 C         4.324971        -1.808955         0.653402
 C         3.145516        -0.843250         0.263200
 O         1.992998        -1.348324        -0.334270
 C         1.380268         0.050187         0.003888
 C        -0.153449         0.041455        -0.126935
 C         2.164951         1.045914        -1.058991
 C         3.378656         0.668407        -0.092599
 O         4.708027         1.206962         0.023750
 C         2.439667         0.227584         1.055517
 H         4.168158        -2.587971         1.359281
 H         4.699981        -1.997255        -0.324298
 H         5.050090        -1.182223         1.166198
 H        -0.429030        -0.683578         0.524010
 H        -0.582536         1.071113         0.052804
 H        -0.290613        -0.379365        -1.197323
 H         2.163608         0.643231        -2.058527
 H         1.575778         1.900119        -0.888321
 H         4.549598         2.176839         0.233302
 H         2.444332         0.284350         2.193506
