19
Iteration:  4532
 C         4.187740        -1.791604         0.612313
 C         3.151813        -0.864779         0.380924
 O         2.049948        -1.347791        -0.433022
 C         1.471650         0.026321        -0.119477
 C        -0.061386        -0.039024        -0.056597
 C         2.250395         0.982959        -1.014333
 C         3.364722         0.666897        -0.036616
 O         4.572300         1.422077         0.044349
 C         2.430652         0.292481         1.083843
 H         3.743647        -2.646480         1.156405
 H         4.288632        -2.271878        -0.450187
 H         5.159528        -1.405412         0.874587
 H        -0.417404        -0.666628         0.760740
 H        -0.774652         0.785581         0.081703
 H        -0.516074        -0.675159        -0.911986
 H         2.172282         0.417356        -1.947198
 H         1.860378         1.990616        -1.016670
 H         5.352572         0.913736        -0.155615
 H         2.360482         0.668496         2.091323
