19
Iteration:  1295charge 0 multiplicity 1
 C         4.246587        -1.738479         0.623098
 C         3.177931        -0.805721         0.354429
 O         2.084892        -1.248661        -0.452278
 C         1.391989        -0.036986        -0.056565
 C        -0.110424        -0.014780        -0.075348
 C         2.149496         1.032820        -1.038360
 C         3.383182         0.695695        -0.097993
 O         4.670838         1.142810         0.052230
 C         2.424118         0.200186         1.124667
 H         3.997596        -2.655218         0.981608
 H         4.816390        -1.994084        -0.283775
 H         4.913784        -1.263478         1.261243
 H        -0.521654        -1.040618         0.118361
 H        -0.724551         0.557344         0.570428
 H        -0.558447         0.349433        -1.015625
 H         2.059950         0.803737        -2.135762
 H         1.914045         2.038721        -0.758613
 H         4.561335         2.097072        -0.026496
 H         2.233475         0.367868         2.144454
