19
Iteration:  4578charge 0 multiplicity 1
 C         4.371213        -1.740396         0.637591
 C         3.168402        -0.896347         0.272058
 O         2.071109        -1.472114        -0.430921
 C         1.351252         0.160462        -0.105138
 C        -0.071875         0.111508        -0.024618
 C         2.191407         0.925181        -1.054741
 C         3.264239         0.685787        -0.108026
 O         4.502224         1.302346         0.064034
 C         2.485187         0.232852         1.090206
 H         4.105866        -2.413034         1.415740
 H         4.803847        -2.391211        -0.239113
 H         5.172218        -1.008012         0.940892
 H        -0.471423        -0.738855         0.438698
 H        -0.475959         0.946230         0.607479
 H        -0.554130         0.162713        -1.060788
 H         2.435044         0.544573        -2.037068
 H         1.954893         1.982189        -1.044229
 H         5.157352         0.890696         0.623775
 H         2.304258         0.556617         2.192583
