19
Iteration:   435charge 0 multiplicity 1
 C         4.223063        -1.784380         0.565605
 C         3.130939        -0.900796         0.292568
 O         2.038094        -1.270924        -0.449454
 C         1.436513        -0.079329        -0.136224
 C        -0.049981        -0.040637        -0.011443
 C         2.221951         1.010275        -1.002833
 C         3.376705         0.643161        -0.046710
 O         4.602021         1.283193         0.120400
 C         2.407736         0.296346         1.041538
 H         4.085951        -2.666420         1.128366
 H         4.550394        -2.205358        -0.458926
 H         5.123279        -1.298978         0.993518
 H        -0.515910        -0.593532         0.775315
 H        -0.430705         0.968044         0.112797
 H        -0.381629        -0.417966        -0.969710
 H         2.357926         1.026054        -2.097058
 H         1.901837         2.021649        -0.668630
 H         4.409613         2.204743         0.333968
 H         2.424852         0.588959         2.145393
