19
Iteration:   169
 C         4.187315        -1.772765         0.649108
 C         3.234020        -0.809137         0.204573
 O         2.086262        -1.253042        -0.472545
 C         1.379491         0.045467        -0.084424
 C        -0.100288        -0.091649        -0.064863
 C         2.111366         1.064134        -0.963595
 C         3.374844         0.684932        -0.080806
 O         4.673033         1.271428         0.151457
 C         2.425573         0.173854         1.061179
 H         3.505880        -2.443614         1.273835
 H         4.680682        -2.448446        -0.066125
 H         4.920884        -1.402453         1.427885
 H        -0.354218        -0.971752         0.567716
 H        -0.555753         0.856457         0.360089
 H        -0.578235        -0.197105        -1.090668
 H         2.165467         0.734770        -2.054114
 H         1.802221         2.136920        -0.906983
 H         5.067101         1.344588        -0.720197
 H         2.583766         0.130969         2.154658
