19
Iteration:  1019charge 0 multiplicity 1
 C         4.194632        -1.853122         0.598328
 C         3.089273        -0.861154         0.274336
 O         2.049664        -1.323686        -0.499631
 C         1.438476         0.037461        -0.133242
 C        -0.043016        -0.066096         0.007841
 C         2.230493         1.113516        -0.996421
 C         3.395317         0.608617        -0.090646
 O         4.602733         1.355581         0.116477
 C         2.446386         0.170019         1.064420
 H         3.978074        -2.591595         1.440994
 H         4.605762        -2.405536        -0.206401
 H         4.901171        -1.190176         1.149328
 H        -0.270779        -0.476123         0.992792
 H        -0.659333         0.889507        -0.229919
 H        -0.407653        -0.860172        -0.699187
 H         2.365440         1.014135        -2.095719
 H         1.908413         2.082050        -0.581678
 H         4.302400         2.284578         0.127815
 H         2.551918         0.514156         1.992211
