19
Iteration:  4443
 C         4.327236        -1.698885         0.763555
 C         3.149562        -0.819697         0.366191
 O         2.059804        -1.302388        -0.522428
 C         1.378217        -0.012417        -0.124505
 C        -0.189771         0.013620         0.008378
 C         2.321039         0.962198        -1.093629
 C         3.366703         0.615021        -0.039809
 O         4.627033         1.261297        -0.045095
 C         2.355055         0.189157         1.125035
 H         3.961084        -2.756382         1.107514
 H         4.777664        -2.052557        -0.275971
 H         5.051471        -1.257619         1.456406
 H        -0.409472        -0.919763         0.679438
 H        -0.454806         0.983736         0.440523
 H        -0.635157        -0.117372        -1.026747
 H         2.334052         0.604613        -2.115736
 H         1.956370         2.007987        -1.053919
 H         4.552392         2.195509         0.158796
 H         2.113735         0.542507         2.102850
