19
Iteration:  4647
 C         4.144220        -1.819420         0.762361
 C         3.197027        -0.780450         0.349246
 O         2.043512        -1.219147        -0.512585
 C         1.380024         0.008551        -0.088764
 C        -0.034512        -0.156831        -0.086520
 C         2.194696         1.020659        -0.913203
 C         3.404401         0.613093        -0.119414
 O         4.609423         1.385704        -0.135229
 C         2.431595         0.260312         1.175180
 H         3.376431        -2.656884         0.971533
 H         4.753469        -2.177830        -0.019340
 H         4.804241        -1.562169         1.657546
 H        -0.372972        -0.952073         0.677444
 H        -0.370518         0.823679         0.248999
 H        -0.249832        -0.494704        -1.031160
 H         1.999752         0.918100        -1.980244
 H         1.986742         2.034150        -0.511372
 H         5.274708         0.704467        -0.338361
 H         2.471329         0.526199         2.194740
