19
Iteration:  4738
 C         4.345388        -1.677874         0.616461
 C         3.151204        -0.874654         0.271730
 O         2.019041        -1.363942        -0.399928
 C         1.391964        -0.103175        -0.142322
 C        -0.072632         0.189199        -0.043275
 C         2.210931         0.866565        -1.036772
 C         3.310007         0.746084        -0.051410
 O         4.508793         1.327965         0.141871
 C         2.488691         0.140808         1.058043
 H         4.266688        -2.282498         1.534357
 H         4.545086        -2.438145        -0.199785
 H         5.252777        -1.158139         0.726857
 H        -0.599539        -0.354045         0.676042
 H        -0.229749         1.230388         0.217054
 H        -0.614704        -0.015973        -0.994551
 H         2.304463         0.414266        -2.062102
 H         1.813033         1.887561        -1.059136
 H         5.196394         1.164030        -0.491087
 H         2.436525         0.249730         2.178442
