19
Iteration:  2848charge 0 multiplicity 1
 C         4.316334        -1.746907         0.553940
 C         3.144048        -0.788703         0.270592
 O         1.960318        -1.372056        -0.284614
 C         1.417886        -0.042570        -0.108469
 C        -0.056016         0.060871        -0.122558
 C         2.229225         0.971038        -1.023363
 C         3.280320         0.704389        -0.044394
 O         4.692042         1.226384         0.076632
 C         2.442328         0.235778         1.054198
 H         3.850112        -2.638876         1.008405
 H         4.766667        -2.117758        -0.387292
 H         5.203410        -1.336886         1.192712
 H        -0.507488        -0.666705         0.685181
 H        -0.543886         1.111867         0.062568
 H        -0.399715        -0.474372        -0.986834
 H         2.392291         0.732508        -2.094921
 H         1.694566         1.908555        -0.892603
 H         4.531982         2.147296         0.260635
 H         2.019204         0.498450         1.985710
