19
Iteration:  3212charge 0 multiplicity 1
 C         4.340923        -1.785450         0.610294
 C         3.130266        -0.851595         0.407133
 O         2.000954        -1.268481        -0.409341
 C         1.363561         0.058594        -0.106674
 C        -0.122615        -0.070975        -0.164205
 C         2.219667         1.006729        -0.966629
 C         3.382965         0.585836        -0.049679
 O         4.624624         1.185834         0.000580
 C         2.407521         0.318226         1.116930
 H         4.186021        -2.329228         1.540542
 H         4.809280        -2.383093        -0.208283
 H         5.067085        -1.072007         1.013944
 H        -0.396631        -0.433623         0.829544
 H        -0.532116         1.004714        -0.250905
 H        -0.454246        -0.593641        -1.005188
 H         2.260731         0.645580        -2.036191
 H         2.283522         2.134763        -0.932723
 H         4.474724         2.069002        -0.312908
 H         2.351593         0.700449         2.198527
