19
Iteration:  4642
 C         4.113181        -1.806339         0.765425
 C         3.164466        -0.805701         0.376315
 O         2.088049        -1.277458        -0.515334
 C         1.427447         0.058405        -0.077612
 C        -0.043853        -0.144260        -0.060216
 C         2.180998         1.055053        -0.885868
 C         3.407761         0.618894        -0.135832
 O         4.573423         1.385710        -0.158399
 C         2.460403         0.223454         1.154089
 H         3.556026        -2.648086         1.097780
 H         4.825846        -2.107612        -0.092157
 H         4.745112        -1.516964         1.583487
 H        -0.438010        -0.889105         0.567354
 H        -0.426746         0.851600         0.265270
 H        -0.271042        -0.375026        -1.203555
 H         2.265429         0.966077        -2.004593
 H         1.944263         2.065710        -0.555859
 H         5.139266         0.599970        -0.303848
 H         2.281690         0.503256         2.243154
