19
Iteration:  3104
 C         4.069750        -1.876889         0.801927
 C         3.234751        -0.760491         0.307033
 O         2.117175        -1.346436        -0.510919
 C         1.409930         0.002768        -0.094096
 C        -0.109763        -0.080326         0.039085
 C         2.169597         0.982280        -1.059957
 C         3.430549         0.718811        -0.040710
 O         4.695286         1.330116        -0.068432
 C         2.411170         0.256259         1.062430
 H         3.495463        -2.752975         1.138687
 H         4.510529        -2.219588        -0.175587
 H         4.848692        -1.574413         1.477867
 H        -0.583122        -0.856558         0.574491
 H        -0.167047         0.950378         0.509869
 H        -0.619128         0.006855        -0.861234
 H         2.401344         0.670702        -2.067884
 H         1.709710         1.989071        -1.111201
 H         4.526540         2.270699        -0.100544
 H         2.227237         0.431756         2.151360
