19
Iteration:  1013
 C         4.151003        -1.800174         0.610974
 C         3.166417        -0.848581         0.289318
 O         2.060586        -1.334596        -0.496979
 C         1.411810         0.056383        -0.137737
 C        -0.079650        -0.070829         0.016093
 C         2.249903         1.078961        -0.968491
 C         3.451660         0.625580        -0.042546
 O         4.587863         1.362077         0.061774
 C         2.400838         0.127159         1.030172
 H         3.863886        -2.522776         1.335117
 H         4.464631        -2.407502        -0.320376
 H         5.055783        -1.336421         1.064124
 H        -0.249709        -0.308521         1.084325
 H        -0.621313         0.770553        -0.278215
 H        -0.319627        -0.738771        -0.801413
 H         2.371148         1.008325        -2.056665
 H         2.089543         2.113978        -0.618950
 H         4.316359         2.274636         0.178546
 H         2.362391         0.247893         2.258105
