19
Iteration:  1805
 C         4.335070        -1.755463         0.554930
 C         3.115502        -0.835954         0.425368
 O         2.048110        -1.319206        -0.376873
 C         1.406542         0.018500        -0.156689
 C        -0.133839         0.056847        -0.138962
 C         2.139758         0.922048        -1.033230
 C         3.333900         0.743168         0.029771
 O         4.697268         1.186830         0.003537
 C         2.430787         0.243993         1.170019
 H         4.018043        -2.618403         1.276306
 H         4.456296        -2.268028        -0.397527
 H         5.256706        -1.263917         0.602500
 H        -0.250062        -0.654060         0.665405
 H        -0.665260         0.966033         0.057111
 H        -0.445404        -0.307573        -1.147190
 H         2.379613         0.587342        -2.105363
 H         1.862751         1.945238        -1.039810
 H         4.508235         2.148166         0.202200
 H         2.154273         0.427267         2.112300
