19
Iteration:  1700charge 0 multiplicity 1
 C         4.210305        -1.973655         0.768124
 C         3.173051        -0.875542         0.326040
 O         2.000158        -1.259583        -0.476391
 C         1.435260         0.027619        -0.159069
 C        -0.071214        -0.082274         0.077209
 C         2.217528         1.025888        -1.064313
 C         3.440727         0.713206        -0.161943
 O         4.641297         1.371514         0.011484
 C         2.443786         0.264366         1.027141
 H         3.641921        -2.744576         1.242878
 H         4.834724        -2.409792        -0.063578
 H         4.554879        -1.559689         1.713740
 H        -0.341213        -0.990642         0.527894
 H        -0.412039         0.855774         0.517031
 H        -0.427574        -0.208072        -0.982401
 H         2.081796         0.782332        -2.091970
 H         1.773009         2.034410        -0.909646
 H         4.432655         2.323728         0.117417
 H         2.144588         0.498353         2.061128
