19
Iteration:    90
 C         4.139034        -1.831102         0.558273
 C         3.229468        -0.779742         0.198440
 O         2.084993        -1.346305        -0.484911
 C         1.405703        -0.061375        -0.126418
 C        -0.135608         0.061758        -0.063528
 C         2.141161         0.927962        -1.051391
 C         3.365502         0.706711         0.006510
 O         4.573361         1.428250         0.184017
 C         2.549031         0.177668         1.180754
 H         3.770666        -2.707999         1.146118
 H         4.620046        -2.165702        -0.292503
 H         5.051981        -1.383243         1.089931
 H        -0.495227        -0.552062         0.745292
 H        -0.277045         1.050347         0.219080
 H        -0.746881        -0.187210        -1.013531
 H         2.292578         0.571179        -2.075221
 H         1.712489         1.948527        -0.921618
 H         5.244812         0.998451        -0.330839
 H         2.689885         0.266844         2.279649
