19
Iteration:  3945
 C         4.272489        -1.837655         0.663219
 C         3.231043        -0.841958         0.307619
 O         2.055176        -1.326583        -0.335688
 C         1.353561        -0.033315        -0.148912
 C        -0.082039        -0.012653        -0.052804
 C         2.188342         0.977820        -1.053652
 C         3.403366         0.662250        -0.157541
 O         4.584285         1.284529         0.117464
 C         2.438701         0.328015         1.024490
 H         3.915667        -2.562720         1.409400
 H         4.572171        -2.485079        -0.160082
 H         5.182390        -1.394930         0.903172
 H        -0.497286        -0.439918         0.895027
 H        -0.432151         0.948227        -0.358415
 H        -0.620128        -0.580681        -0.849654
 H         2.083270         0.875715        -2.121726
 H         1.741255         1.932256        -0.916405
 H         4.468368         2.267328         0.021255
 H         2.424914         0.763134         2.144109
