19
Iteration:  4581charge 0 multiplicity 1
 C         4.356137        -1.726327         0.632839
 C         3.142025        -0.898616         0.260814
 O         2.088213        -1.457604        -0.437310
 C         1.375727         0.149324        -0.092935
 C        -0.068082         0.115651        -0.025252
 C         2.176482         0.909861        -1.040672
 C         3.271318         0.647541        -0.088377
 O         4.518769         1.322659         0.044926
 C         2.470416         0.231842         1.078032
 H         4.125878        -2.422042         1.495680
 H         4.793401        -2.321250        -0.137509
 H         5.113894        -0.936422         0.972044
 H        -0.577062        -0.812572         0.400335
 H        -0.527062         0.964124         0.538435
 H        -0.477648         0.239122        -0.970878
 H         2.334145         0.574426        -2.077148
 H         2.008021         2.017468        -1.008679
 H         5.107388         0.794923         0.679452
 H         2.423500         0.474453         2.146996
