19
Iteration:  3931
 C         4.282669        -1.761732         0.632530
 C         3.161202        -0.809659         0.339163
 O         2.019035        -1.363583        -0.406197
 C         1.438515        -0.009286        -0.072057
 C        -0.181893        -0.013082        -0.053593
 C         2.249856         0.923950        -1.113376
 C         3.324090         0.649866        -0.100779
 O         4.610043         1.304688         0.096270
 C         2.491617         0.257093         1.056527
 H         3.945539        -2.505798         1.351155
 H         4.443681        -2.209078        -0.376695
 H         5.060895        -1.149952         1.124299
 H        -0.587955        -0.392895         0.941607
 H        -0.434989         1.097318        -0.064890
 H        -0.506088        -0.611075        -0.832851
 H         2.526507         0.450953        -2.033465
 H         2.012924         1.973604        -1.138913
 H         4.415025         2.205835         0.324316
 H         2.597303         0.795529         1.864711
