19
Iteration:  3056
 C         4.209332        -1.721805         0.755895
 C         3.090005        -0.892720         0.266210
 O         1.966822        -1.294933        -0.416907
 C         1.440253         0.020214        -0.062484
 C        -0.149230        -0.068120        -0.076937
 C         2.246821         1.058942        -0.930717
 C         3.455032         0.668122        -0.101154
 O         4.703281         1.229641        -0.071159
 C         2.458348         0.217569         1.005061
 H         3.878992        -2.572978         1.398784
 H         4.839158        -2.166539        -0.029102
 H         4.727649        -0.945471         1.390440
 H        -0.384373        -0.918366         0.643349
 H        -0.774130         0.896036         0.021254
 H        -0.423392        -0.661274        -0.991792
 H         2.174284         1.000108        -2.126247
 H         1.938971         2.119891        -0.625168
 H         4.636464         2.195214         0.222304
 H         2.392665         0.272522         2.087653
