19
Iteration:  2044
 C         4.154090        -1.770967         0.767131
 C         3.125938        -0.867705         0.197875
 O         2.062057        -1.339498        -0.501716
 C         1.379602        -0.011087        -0.084429
 C        -0.158513        -0.059630         0.042975
 C         2.222361         1.043220        -0.984939
 C         3.410951         0.693082        -0.128626
 O         4.654793         1.248785         0.051887
 C         2.569301         0.265678         0.999074
 H         3.518715        -2.549720         1.290627
 H         4.769395        -2.346736         0.071527
 H         4.726228        -1.023963         1.277641
 H        -0.552122        -0.907791         0.720451
 H        -0.478140         0.950153         0.398949
 H        -0.493296        -0.341677        -0.991612
 H         2.168406         0.859048        -2.111407
 H         2.103257         2.112146        -0.783873
 H         4.455986         2.238129         0.008943
 H         2.603874         0.509281         2.061090
