19
Iteration:  3213charge 0 multiplicity 1
 C         4.333876        -1.786939         0.605136
 C         3.135617        -0.850950         0.410073
 O         2.004273        -1.273013        -0.412892
 C         1.364801         0.065244        -0.107099
 C        -0.118103        -0.068873        -0.159600
 C         2.215133         1.005166        -0.963160
 C         3.383057         0.579792        -0.061702
 O         4.627229         1.188899         0.004313
 C         2.402671         0.324326         1.121408
 H         4.187478        -2.346423         1.529779
 H         4.811589        -2.411065        -0.172074
 H         5.074676        -1.064841         1.048961
 H        -0.444736        -0.462884         0.814477
 H        -0.529334         0.962470        -0.258141
 H        -0.487739        -0.594476        -1.003269
 H         2.274147         0.675698        -2.041447
 H         2.278807         2.135075        -0.938582
 H         4.474082         2.081478        -0.326766
 H         2.379333         0.714874         2.205697
