19
Iteration:  4863charge 0 multiplicity 1
 C         4.308305        -1.807623         0.696412
 C         3.185298        -0.887292         0.303928
 O         2.028676        -1.367193        -0.520641
 C         1.374357         0.061296        -0.128195
 C        -0.044992         0.070934         0.029125
 C         2.171077         1.047265        -1.030528
 C         3.347445         0.601674        -0.135441
 O         4.520418         1.404048         0.067680
 C         2.463832         0.115062         1.035464
 H         4.010933        -2.772050         1.052113
 H         5.229831        -1.924816         0.187160
 H         4.652300        -1.188841         1.606130
 H        -0.430462        -0.334051         1.063632
 H        -0.280213         1.169122         0.087074
 H        -0.708762        -0.281079        -0.706904
 H         2.148440         0.774827        -2.116704
 H         1.964979         2.143230        -0.826296
 H         5.308044         0.872988        -0.051663
 H         2.379476         0.102234         2.153853
