19
Iteration:  2441
 C         4.235953        -1.722131         0.676772
 C         3.144609        -0.801878         0.345705
 O         1.997204        -1.302091        -0.412079
 C         1.431012         0.008408        -0.153757
 C        -0.090085        -0.041200        -0.042112
 C         2.239382         1.005931        -0.960921
 C         3.393886         0.624191        -0.050200
 O         4.710223         1.219895        -0.106565
 C         2.340698         0.188227         1.111454
 H         3.822374        -2.604057         1.133922
 H         4.618218        -1.882773        -0.344737
 H         5.065950        -1.319587         1.325777
 H        -0.461081        -0.690163         0.632872
 H        -0.272587         0.935870         0.329969
 H        -0.656796        -0.105202        -1.042741
 H         2.498270         0.815603        -2.077296
 H         1.769859         2.012328        -0.764477
 H         4.645534         2.123985         0.264512
 H         2.040742         0.447565         2.172205
