19
Iteration:  3662
 C         4.225136        -1.781291         0.807154
 C         3.145673        -0.883915         0.302699
 O         2.057787        -1.399037        -0.359521
 C         1.420000         0.137301        -0.121001
 C        -0.065568        -0.042396        -0.043245
 C         2.182392         0.990115        -1.023992
 C         3.360487         0.672965        -0.144413
 O         4.624629         1.291550        -0.067917
 C         2.412373         0.253189         0.990810
 H         3.757875        -2.708197         1.236505
 H         4.744915        -2.132821        -0.122373
 H         5.008977        -1.349609         1.459109
 H        -0.181609        -1.088884         0.301425
 H        -0.601889         0.614040         0.564081
 H        -0.477272         0.047382        -1.027452
 H         2.432060         1.063076        -2.099630
 H         2.084140         2.038471        -0.699773
 H         4.465693         2.117563         0.445126
 H         2.412891         0.528054         2.019052
