19
Iteration:   474charge 0 multiplicity 1
 C         4.163358        -1.795886         0.730559
 C         3.243703        -0.760535         0.180867
 O         2.047414        -1.221884        -0.576979
 C         1.363394        -0.036303        -0.073582
 C        -0.115328        -0.126746         0.033592
 C         2.262288         1.060466        -0.963889
 C         3.363656         0.698085         0.005710
 O         4.649399         1.256899        -0.032896
 C         2.419994         0.156243         1.057175
 H         3.658013        -2.626905         1.412990
 H         4.713723        -2.317627        -0.042379
 H         4.747528        -1.154648         1.362388
 H        -0.447272        -0.963899         0.736670
 H        -0.417016         0.951370         0.327532
 H        -0.553852        -0.177703        -0.982358
 H         2.521651         0.817266        -2.032395
 H         1.942368         2.036763        -0.615733
 H         4.596085         2.157168         0.337291
 H         2.410917        -0.059594         2.055905
