19
Iteration:  1572
 C         4.232001        -1.823364         0.604991
 C         3.162495        -0.807740         0.313736
 O         2.079638        -1.288653        -0.414347
 C         1.391146         0.015062        -0.099105
 C        -0.141587        -0.057305        -0.034737
 C         2.251975         1.002543        -1.050456
 C         3.371348         0.653392        -0.065656
 O         4.620823         1.260458         0.078612
 C         2.451797         0.281249         1.065922
 H         3.750256        -2.465559         1.328468
 H         4.330852        -2.518288        -0.229884
 H         5.208744        -1.348104         0.761860
 H        -0.466871        -0.620095         0.900318
 H        -0.688976         0.996757        -0.052946
 H        -0.548962        -0.560704        -0.911266
 H         2.351946         0.681274        -2.088848
 H         2.048171         2.104525        -0.814034
 H         4.515928         2.224757        -0.022241
 H         2.397314         0.354564         2.146036
