19
Iteration:  2843charge 0 multiplicity 1
 C         4.272854        -1.693916         0.485668
 C         3.181598        -0.818832         0.330289
 O         1.971940        -1.383421        -0.295508
 C         1.447441        -0.004224        -0.117284
 C        -0.087638         0.056564        -0.115517
 C         2.238745         0.930923        -1.028661
 C         3.351745         0.691727        -0.016170
 O         4.640995         1.223429         0.054080
 C         2.437871         0.232421         1.097140
 H         3.879266        -2.530159         1.114366
 H         4.661937        -2.118840        -0.445057
 H         4.958754        -1.311394         1.175514
 H        -0.475306        -0.595472         0.601434
 H        -0.406235         1.038700        -0.017568
 H        -0.522832        -0.408538        -1.070597
 H         2.449259         0.720947        -2.105754
 H         1.688798         1.927180        -1.063615
 H         4.488991         2.157989         0.386127
 H         2.094186         0.501838         2.128047
