19
Iteration:  3117
 C         4.116607        -1.806640         0.719526
 C         3.155369        -0.807171         0.287438
 O         1.996519        -1.335074        -0.460992
 C         1.422532        -0.093067        -0.156795
 C        -0.080036        -0.007836         0.028575
 C         2.277664         0.927401        -1.036843
 C         3.403624         0.689937        -0.104836
 O         4.676255         1.374219         0.001279
 C         2.462848         0.273306         1.060452
 H         3.491097        -2.467804         1.287178
 H         4.690636        -2.358931        -0.020664
 H         4.868963        -1.439081         1.487228
 H        -0.202571        -0.942184         0.599741
 H        -0.552410         0.726209         0.595735
 H        -0.641636        -0.005606        -0.951253
 H         2.222105         0.577571        -2.006826
 H         1.986138         1.943307        -0.934947
 H         4.487520         2.351311        -0.016837
 H         2.518153         0.442943         2.197452
