19
Iteration:  1728charge 0 multiplicity 1
 C         4.124673        -1.785415         0.679566
 C         3.174287        -0.770849         0.284989
 O         2.114448        -1.298187        -0.488780
 C         1.428663        -0.014219        -0.190559
 C        -0.118327        -0.049001         0.029608
 C         2.319083         0.961871        -0.939267
 C         3.399914         0.697521        -0.042832
 O         4.589395         1.262412        -0.100579
 C         2.379108         0.234250         1.125848
 H         3.543431        -2.463518         1.404240
 H         4.583467        -2.230312        -0.215592
 H         4.839652        -1.418564         1.408033
 H        -0.296119        -0.734966         0.911471
 H        -0.385123         0.977596         0.269207
 H        -0.547272        -0.360567        -0.966260
 H         2.373736         0.749631        -2.082038
 H         1.921573         1.967399        -0.898553
 H         4.597433         2.000033         0.513547
 H         2.354262         0.359754         2.165209
