19
Iteration:  2757
 C         4.233285        -1.825126         0.815869
 C         3.212234        -0.825868         0.229093
 O         2.077987        -1.242212        -0.554394
 C         1.401665         0.073077        -0.078277
 C        -0.096327        -0.062225        -0.011494
 C         2.089349         1.067301        -0.993883
 C         3.385933         0.580164        -0.024822
 O         4.684236         1.222773         0.003613
 C         2.413957         0.221141         0.984931
 H         3.665946        -2.310514         1.655932
 H         4.550237        -2.570386         0.043769
 H         5.123765        -1.257350         1.038853
 H        -0.308336        -0.817035         0.749797
 H        -0.500463         0.769930         0.467820
 H        -0.699053        -0.271634        -1.037817
 H         2.301233         0.807574        -2.075041
 H         1.779787         2.154124        -0.796782
 H         4.541286         2.177292         0.060290
 H         2.405935         0.449642         2.099122
