19
Iteration:  1018
 C         4.188296        -1.844709         0.595011
 C         3.095578        -0.854824         0.277958
 O         2.053253        -1.327467        -0.498663
 C         1.436150         0.040397        -0.132902
 C        -0.046015        -0.068164         0.010895
 C         2.231889         1.109436        -0.996818
 C         3.405606         0.608550        -0.082515
 O         4.600805         1.356903         0.108381
 C         2.439530         0.161383         1.060313
 H         3.975436        -2.591886         1.444470
 H         4.574091        -2.405392        -0.203495
 H         4.900661        -1.215646         1.144974
 H        -0.258902        -0.453988         1.023535
 H        -0.684087         0.902465        -0.256352
 H        -0.394912        -0.846451        -0.731187
 H         2.375120         1.011059        -2.084116
 H         1.936973         2.102240        -0.566427
 H         4.297932         2.296669         0.133433
 H         2.533032         0.467088         2.011270
