19
Iteration:  2405charge 0 multiplicity 1
 C         4.194419        -1.838961         0.785467
 C         3.255236        -0.813576         0.186470
 O         1.965256        -1.187745        -0.430320
 C         1.340302         0.003634        -0.060968
 C        -0.089676        -0.084224        -0.093402
 C         2.085259         1.034324        -0.971298
 C         3.416377         0.578804        -0.148057
 O         4.655543         1.279427         0.051393
 C         2.596839         0.195342         1.083277
 H         3.645586        -2.429964         1.549697
 H         4.448258        -2.596022         0.014127
 H         5.209204        -1.438704         1.174611
 H        -0.597950        -0.880867         0.534989
 H        -0.396252         0.995165         0.182636
 H        -0.387402        -0.240959        -1.147887
 H         2.266825         0.930371        -2.078411
 H         1.784091         2.046250        -0.752527
 H         4.429900         2.100431        -0.386348
 H         2.812352         0.706678         2.054553
