19
Iteration:  2813charge 0 multiplicity 1
 C         4.402397        -1.803009         0.515062
 C         3.219001        -0.909821         0.463705
 O         1.991588        -1.252330        -0.427180
 C         1.406989         0.051578        -0.070293
 C        -0.178000         0.087394        -0.111890
 C         2.241919         0.854559        -1.042864
 C         3.397417         0.611993         0.026694
 O         4.574088         1.284937        -0.011111
 C         2.378228         0.272089         1.117976
 H         4.175804        -2.590789         1.289032
 H         4.512248        -2.300019        -0.477244
 H         5.301573        -1.240092         0.838919
 H        -0.572009        -0.710448         0.587571
 H        -0.614086         1.035609         0.101190
 H        -0.462420        -0.108395        -1.210231
 H         2.488001         0.436552        -2.072274
 H         1.921234         1.933770        -1.103388
 H         4.509722         1.905955         0.718664
 H         2.005009         0.702192         2.022508
