19
Iteration:   972charge 0 multiplicity 1
 C         4.236065        -1.835422         0.634447
 C         3.151286        -0.865413         0.319486
 O         2.137471        -1.279458        -0.512505
 C         1.427194         0.028807        -0.085348
 C        -0.090511        -0.027632        -0.121547
 C         2.119039         1.088013        -0.915023
 C         3.298800         0.733828        -0.003376
 O         4.592918         1.250046        -0.009706
 C         2.557293         0.130153         1.112909
 H         4.012040        -2.599644         1.429250
 H         4.306372        -2.360056        -0.339920
 H         5.146294        -1.375884         0.971357
 H        -0.694042        -0.498096         0.738211
 H        -0.515512         1.029446        -0.382845
 H        -0.404533        -0.700606        -0.975677
 H         2.097448         0.776439        -1.960169
 H         1.713566         2.098605        -0.572510
 H         4.635857         2.140994         0.432536
 H         2.364285         0.494299         2.172339
