19
Iteration:  4253charge 0 multiplicity 1
 C         4.289494        -1.771756         0.637657
 C         3.132077        -0.828648         0.445244
 O         2.074880        -1.359198        -0.394622
 C         1.417970        -0.004443        -0.166206
 C        -0.010012         0.050992        -0.065514
 C         2.221957         0.855988        -1.048874
 C         3.370251         0.621127        -0.035078
 O         4.531832         1.315143        -0.065727
 C         2.335929         0.326138         1.079909
 H         3.921671        -2.785860         0.710974
 H         4.803941        -1.732322        -0.302843
 H         5.012645        -1.427019         1.442508
 H        -0.263265        -0.775581         0.504451
 H        -0.195042         1.017288         0.424742
 H        -0.564442         0.079233        -1.013067
 H         2.386785         0.661764        -2.101402
 H         1.954941         1.892293        -0.933339
 H         4.644527         1.689869         0.844674
 H         2.226096         0.653255         2.078889
