19
Iteration:  2881
 C         4.240970        -1.742722         0.731524
 C         3.161584        -0.865050         0.270630
 O         2.098176        -1.228177        -0.504114
 C         1.367092         0.026411        -0.128784
 C        -0.168195        -0.044897        -0.025040
 C         2.189807         1.014295        -0.959145
 C         3.378610         0.587905        -0.127045
 O         4.630120         1.193947         0.039983
 C         2.516631         0.234171         1.082316
 H         3.730653        -2.641212         1.110886
 H         4.890063        -2.020119        -0.131750
 H         4.918578        -1.264953         1.566305
 H        -0.301252        -0.743865         0.905853
 H        -0.812261         0.962970         0.079967
 H        -0.516959        -0.415144        -0.960273
 H         2.164548         0.866667        -2.077918
 H         1.967966         2.036005        -0.623818
 H         4.419195         2.099444        -0.217724
 H         2.385409         0.705303         2.096063
