19
Iteration:  4358charge 0 multiplicity 1
 C         4.238948        -1.762150         0.681479
 C         3.165354        -0.826496         0.352551
 O         2.024896        -1.329384        -0.445816
 C         1.416375        -0.071684        -0.046643
 C        -0.022309        -0.054464        -0.078494
 C         2.280349         1.046957        -1.011312
 C         3.357156         0.773443        -0.015857
 O         4.609597         1.284591        -0.067128
 C         2.334233         0.156734         1.117129
 H         4.108466        -2.292500         1.631719
 H         4.235786        -2.493428        -0.189501
 H         5.221810        -1.415851         0.785529
 H        -0.596159        -0.622431         0.637679
 H        -0.413121         0.931633         0.086437
 H        -0.300952        -0.329649        -1.154255
 H         2.430372         0.639554        -2.040481
 H         1.780414         2.022157        -1.099442
 H         4.586157         2.259065        -0.119443
 H         2.285875         0.431886         2.144389
