19
Iteration:  3010
 C         4.339569        -1.731855         0.561602
 C         3.123397        -0.772543         0.414407
 O         2.101151        -1.384154        -0.409833
 C         1.420398         0.066001        -0.129806
 C        -0.059159         0.075455        -0.102839
 C         2.192275         0.937566        -1.032212
 C         3.299369         0.616499        -0.079501
 O         4.602288         1.130498         0.023963
 C         2.369052         0.280827         1.195386
 H         4.333846        -2.554450         1.246094
 H         4.382485        -2.127050        -0.435617
 H         5.237026        -1.031850         0.765751
 H        -0.524426        -0.460441         0.792435
 H        -0.169126         1.120189         0.003148
 H        -0.570693        -0.388179        -1.054275
 H         2.370599         0.606098        -2.130413
 H         1.849001         2.012433        -0.956710
 H         4.445178         2.056182         0.349342
 H         1.905660         0.715129         2.133151
