19
Iteration:  4813
 C         4.087006        -1.834001         0.672008
 C         3.212940        -0.772131         0.330155
 O         2.035222        -1.230126        -0.401670
 C         1.381934         0.035549        -0.038699
 C        -0.024271        -0.196871        -0.048404
 C         2.214836         1.073633        -1.019814
 C         3.353214         0.721588        -0.050207
 O         4.670498         1.340419        -0.010462
 C         2.487664         0.272242         1.058348
 H         3.568445        -2.686450         1.315961
 H         4.424274        -2.363236        -0.300281
 H         5.032792        -1.621315         1.094901
 H        -0.268107        -1.237829         0.141219
 H        -0.746154         0.336146         0.560759
 H        -0.409250        -0.121250        -1.099935
 H         2.194722         0.765807        -2.059137
 H         1.678229         1.969907        -0.819865
 H         5.219567         0.918674        -0.767119
 H         2.190146         0.259378         2.153474
