19
Iteration:  3389charge 0 multiplicity 1
 C         4.228925        -1.718286         0.628671
 C         3.165687        -0.831839         0.370663
 O         2.026521        -1.336562        -0.324770
 C         1.348484        -0.013303        -0.022756
 C        -0.106993        -0.037497        -0.208191
 C         2.166178         1.067648        -1.056968
 C         3.415394         0.681507        -0.074024
 O         4.708702         1.176817        -0.017120
 C         2.414030         0.288508         1.136588
 H         3.952264        -2.516325         1.238731
 H         4.352632        -2.161625        -0.360983
 H         5.251305        -1.358610         0.936352
 H        -0.570488        -0.500386         0.722096
 H        -0.543003         0.957565        -0.429789
 H        -0.313029        -0.853523        -0.944582
 H         2.274139         0.710962        -2.086196
 H         2.009421         2.171461        -1.011899
 H         4.633782         2.031979         0.377234
 H         2.341890         0.395458         2.206018
