19
Iteration:  2393charge 0 multiplicity 1
 C         4.124524        -1.862572         0.717678
 C         3.230244        -0.807072         0.263083
 O         2.024079        -1.298857        -0.455504
 C         1.439704        -0.010931        -0.053480
 C        -0.094582        -0.026484        -0.083790
 C         2.160190         1.016811        -0.959237
 C         3.396767         0.679746        -0.152522
 O         4.672354         1.321045         0.016840
 C         2.480995         0.195075         1.090030
 H         3.631680        -2.245689         1.661936
 H         4.296315        -2.681756        -0.013808
 H         5.083941        -1.397733         1.078014
 H        -0.439135        -0.843102         0.693722
 H        -0.675169         0.951399         0.193868
 H        -0.401785        -0.330862        -1.066986
 H         1.860648         0.820985        -1.992375
 H         1.902574         2.022853        -0.667356
 H         4.680467         2.213329        -0.351768
 H         2.800364         0.484480         2.078543
