19
Iteration:  4809
 C         4.110112        -1.851727         0.642256
 C         3.251270        -0.767796         0.356888
 O         1.990811        -1.241549        -0.421834
 C         1.391233         0.056209         0.003957
 C        -0.023084        -0.207991        -0.090691
 C         2.223980         1.044845        -0.960066
 C         3.356405         0.754781        -0.063246
 O         4.669640         1.322286        -0.005262
 C         2.461438         0.286369         1.014321
 H         3.635600        -2.501098         1.385652
 H         4.320385        -2.379835        -0.237559
 H         5.104508        -1.645548         1.137580
 H        -0.271900        -1.358588         0.130801
 H        -0.722683         0.324754         0.621466
 H        -0.417999        -0.077998        -1.065556
 H         2.281660         0.689550        -1.991271
 H         1.709777         2.035156        -0.832344
 H         5.060197         0.956161        -0.783046
 H         2.212188         0.471465         2.091405
