19
Iteration:  2705charge 0 multiplicity 1
 C         4.200893        -1.854355         0.689842
 C         3.176625        -0.750584         0.319864
 O         2.013621        -1.298765        -0.407842
 C         1.424384         0.001383        -0.112633
 C        -0.088995        -0.073611        -0.079229
 C         2.182985         1.068677        -0.987317
 C         3.346132         0.696701        -0.133107
 O         4.676664         1.223137        -0.025750
 C         2.491350         0.271178         1.059649
 H         3.632254        -2.774117         0.999498
 H         4.891753        -2.071630        -0.136617
 H         4.680945        -1.525601         1.606707
 H        -0.363707        -0.888479         0.662893
 H        -0.595813         0.829657         0.230965
 H        -0.596084        -0.583901        -0.921908
 H         2.197975         0.981298        -2.048643
 H         1.897964         2.010179        -0.614462
 H         4.752164         2.091118         0.344309
 H         2.393293         0.394903         2.181431
