19
Iteration:  2238charge 0 multiplicity 1
 C         4.190105        -1.839946         0.774620
 C         3.194710        -0.828285         0.322758
 O         1.979735        -1.274692        -0.444155
 C         1.434808        -0.009800        -0.129238
 C        -0.073684        -0.077593        -0.007107
 C         2.155840         1.047679        -0.961645
 C         3.408954         0.663518        -0.115533
 O         4.674039         1.265713        -0.037033
 C         2.524800         0.252870         0.975568
 H         3.524647        -2.530430         1.420352
 H         4.615755        -2.292896        -0.153833
 H         4.860996        -1.333684         1.484258
 H        -0.747121        -0.926210         0.403507
 H        -0.573802         0.872297         0.052889
 H        -0.365844        -0.327351        -0.995448
 H         2.027249         1.053442        -2.070267
 H         1.887952         2.038442        -0.476143
 H         4.505928         2.235784         0.076877
 H         2.517190         0.414790         2.097803
