19
Iteration:   180charge 0 multiplicity 1
 C         4.291367        -1.843433         0.692314
 C         3.184530        -0.762331         0.265708
 O         2.086236        -1.236578        -0.518226
 C         1.404702         0.013450        -0.125701
 C        -0.121607        -0.036642        -0.107885
 C         2.129765         1.036631        -0.913701
 C         3.315677         0.798406         0.015727
 O         4.606471         1.208002         0.087284
 C         2.513718         0.170124         1.078721
 H         3.724827        -2.655467         1.266277
 H         4.599584        -2.235133        -0.304737
 H         5.160975        -1.344893         1.223780
 H        -0.507759        -0.840722         0.579664
 H        -0.552044         0.899798         0.392482
 H        -0.559901        -0.180877        -1.146880
 H         2.340213         0.556280        -1.936407
 H         1.540177         1.979789        -0.991144
 H         5.063171         1.064587        -0.739859
 H         2.224441         0.272826         2.153949
