19
Iteration:  4352
 C         4.253229        -1.804681         0.705939
 C         3.166092        -0.839763         0.292936
 O         2.073794        -1.274701        -0.406858
 C         1.442834        -0.065011        -0.099709
 C        -0.066925        -0.067093        -0.074740
 C         2.269603         1.047195        -1.000808
 C         3.310757         0.811464        -0.009814
 O         4.608796         1.254315        -0.071177
 C         2.341634         0.159624         1.117589
 H         4.058928        -2.392896         1.625616
 H         4.224402        -2.533237        -0.061724
 H         5.277265        -1.280224         0.848085
 H        -0.590138        -0.641112         0.723038
 H        -0.409714         1.010733        -0.041891
 H        -0.446069        -0.364404        -1.022901
 H         2.453549         0.710641        -2.031235
 H         1.813850         2.047150        -1.053600
 H         4.606630         2.235281        -0.282294
 H         2.216600         0.196614         2.229262
