19
Iteration:  4554
 C         4.304204        -1.799745         0.561880
 C         3.203767        -0.827538         0.370474
 O         2.006593        -1.300184        -0.341295
 C         1.375638        -0.075831        -0.198654
 C        -0.087132        -0.000058         0.034411
 C         2.276296         0.902188        -1.083782
 C         3.335898         0.675940        -0.097928
 O         4.599354         1.411495         0.081906
 C         2.317713         0.267679         1.027408
 H         4.050404        -2.580771         1.275816
 H         4.528418        -2.330073        -0.443149
 H         5.194881        -1.237795         0.786531
 H        -0.644532        -0.611535         0.696364
 H        -0.346259         1.010337         0.359968
 H        -0.634356        -0.122234        -0.983503
 H         2.520439         0.698047        -2.135976
 H         2.050349         1.937712        -0.856020
 H         5.346541         0.861840         0.443213
 H         2.246875         0.453419         2.102821
