19
Iteration:   359charge 0 multiplicity 1
 C         4.333371        -1.784959         0.597278
 C         3.112196        -0.898116         0.332953
 O         2.028860        -1.303543        -0.440844
 C         1.432556         0.019758        -0.160459
 C        -0.106231        -0.027616        -0.055883
 C         2.237058         1.136464        -0.964099
 C         3.343260         0.716347        -0.028286
 O         4.636311         1.211899        -0.007718
 C         2.369143         0.132532         1.113905
 H         4.174543        -2.563715         1.248809
 H         4.836201        -2.344516        -0.225531
 H         4.978549        -1.067027         1.089418
 H        -0.385610        -0.868386         0.597013
 H        -0.472840         0.968723         0.311167
 H        -0.635641        -0.089060        -1.057052
 H         2.478992         1.013784        -2.041843
 H         1.775976         2.120728        -0.655058
 H         4.655485         2.180359         0.156386
 H         2.026966         0.141076         2.184980
