19
Iteration:  4172
 C         4.313710        -1.808267         0.778814
 C         3.128396        -0.744798         0.372884
 O         2.062482        -1.279674        -0.475670
 C         1.397464         0.005912        -0.257786
 C        -0.125140        -0.114583        -0.074845
 C         2.184320         1.042427        -0.937596
 C         3.364120         0.711260         0.038877
 O         4.692026         1.197320        -0.117993
 C         2.359602         0.247697         1.061117
 H         3.978031        -2.305163         1.745370
 H         4.254236        -2.403901        -0.176593
 H         5.313112        -1.452514         0.930479
 H        -0.196714        -0.754011         0.887791
 H        -0.548247         0.797078         0.348543
 H        -0.615636        -0.651576        -0.874013
 H         2.519203         1.006089        -2.028450
 H         1.899335         2.121192        -0.767061
 H         4.633139         2.162910        -0.029559
 H         1.956368         0.285328         2.134590
