19
Iteration:  2783
 C         4.230983        -1.721005         0.671381
 C         3.193170        -0.822232         0.291797
 O         1.957607        -1.377096        -0.379530
 C         1.452923        -0.076190        -0.120865
 C        -0.083447         0.004275        -0.096210
 C         2.165258         1.073362        -1.031082
 C         3.391963         0.659942        -0.098646
 O         4.616303         1.235558         0.064633
 C         2.542759         0.224581         1.015866
 H         3.774598        -2.237286         1.491470
 H         4.358431        -2.396271        -0.162878
 H         5.219318        -1.223266         0.743898
 H        -0.562848        -0.713529         0.660487
 H        -0.438652         1.000175         0.392440
 H        -0.473464        -0.016545        -1.075079
 H         2.457640         0.983262        -2.033736
 H         1.644514         1.916699        -0.714111
 H         4.470281         2.081462         0.562336
 H         2.378806         0.313415         2.042703
