19
Iteration:   343charge 0 multiplicity 1
 C         4.311725        -1.801950         0.715534
 C         3.268360        -0.778481         0.250867
 O         2.007581        -1.305855        -0.582384
 C         1.339279        -0.061867        -0.124126
 C        -0.109406        -0.034463        -0.040025
 C         2.128608         1.081364        -0.894631
 C         3.348489         0.745577         0.002427
 O         4.704559         1.179057         0.046546
 C         2.402618         0.210576         1.030657
 H         3.770409        -2.652166         1.361149
 H         4.612531        -2.118433        -0.291167
 H         5.243448        -1.530582         1.270304
 H        -0.555008        -0.755545         0.658292
 H        -0.384619         0.878474         0.480725
 H        -0.491591        -0.193729        -1.033278
 H         2.086205         0.944155        -2.005212
 H         1.711985         2.068977        -0.749022
 H         4.681004         2.174103        -0.036675
 H         2.390203         0.444116         2.083830
