19
Iteration:  4979charge 0 multiplicity 1
 C         4.196012        -1.864109         0.752768
 C         3.210838        -0.769688         0.291129
 O         2.090921        -1.265676        -0.544469
 C         1.353299         0.018336        -0.135141
 C        -0.059075        -0.042902        -0.046161
 C         2.195656         1.051493        -0.848963
 C         3.378485         0.613962        -0.048881
 O         4.543666         1.381334        -0.015163
 C         2.455669         0.180088         1.057236
 H         4.139386        -2.340749         1.695268
 H         4.042294        -2.770260         0.109979
 H         5.278509        -1.625808         0.615077
 H        -0.526744        -0.899361         0.320932
 H        -0.323970         0.943337         0.417349
 H        -0.387549         0.027113        -1.213413
 H         2.183939         0.903390        -1.939322
 H         1.903729         2.084410        -0.696281
 H         5.218675         0.745101        -0.298257
 H         2.276258         0.411983         2.136715
