19
Iteration:  4079
 C         4.326218        -1.766622         0.651936
 C         3.160554        -0.856507         0.371470
 O         1.976625        -1.352871        -0.428256
 C         1.410284        -0.014641        -0.158214
 C        -0.046462         0.069950        -0.059513
 C         2.302683         0.856269        -1.068917
 C         3.300280         0.683422         0.019551
 O         4.550544         1.314242        -0.043374
 C         2.385955         0.260476         1.126794
 H         3.905112        -2.662480         1.036415
 H         4.824212        -1.807513        -0.291563
 H         5.009001        -1.222266         1.367812
 H        -0.263359        -0.666336         0.665012
 H        -0.347025         0.980710         0.479929
 H        -0.468205        -0.094320        -1.088777
 H         2.712338         0.351315        -1.940048
 H         1.949141         1.837314        -1.327313
 H         4.456380         2.249289         0.233814
 H         2.437595         0.424265         2.270771
