19
Iteration:   249charge 0 multiplicity 1
 C         4.282506        -1.853062         0.559085
 C         3.235033        -0.840647         0.174935
 O         2.028420        -1.273409        -0.414247
 C         1.452263        -0.010400        -0.043292
 C        -0.059447         0.015913        -0.125805
 C         2.165285         0.946058        -0.942099
 C         3.338073         0.729798        -0.025488
 O         4.534121         1.328193         0.088707
 C         2.447884         0.220715         1.106574
 H         3.855884        -2.709924         1.079776
 H         4.709640        -2.354826        -0.450517
 H         4.959579        -1.210829         1.052395
 H        -0.638845        -0.496334         0.723465
 H        -0.460445         1.128960         0.145723
 H        -0.474093        -0.197295        -1.135903
 H         2.312365         0.421952        -1.963325
 H         1.860347         1.980562        -1.113564
 H         4.992401         0.942507         0.844430
 H         2.273695         0.688073         2.039987
