19
Iteration:  2488
 C         4.368998        -1.698954         0.588151
 C         3.179030        -0.846554         0.291895
 O         1.945944        -1.271897        -0.346870
 C         1.372916        -0.010324        -0.076911
 C        -0.120852         0.069362        -0.063369
 C         2.176361         0.941519        -1.045978
 C         3.391441         0.599670        -0.143977
 O         4.635380         1.148547         0.098296
 C         2.454011         0.261095         1.007799
 H         4.094843        -2.667885         1.088026
 H         5.158703        -1.641474        -0.186483
 H         4.727120        -1.218271         1.464217
 H        -0.518543        -0.704770         0.712128
 H        -0.421825         1.097726         0.169851
 H        -0.467710        -0.341871        -0.967454
 H         2.052217         0.592751        -2.107917
 H         2.016008         2.085515        -0.936393
 H         4.528938         2.084862         0.447259
 H         2.395622         0.453620         2.060816
