19
Iteration:  3967charge 0 multiplicity 1
 C         4.220727        -1.820890         0.734476
 C         3.203605        -0.793948         0.352503
 O         2.045695        -1.358555        -0.406928
 C         1.366850         0.034511        -0.114590
 C        -0.031673        -0.092584        -0.093139
 C         2.176135         1.069216        -0.990563
 C         3.399675         0.725820        -0.080992
 O         4.634979         1.275878        -0.047616
 C         2.403858         0.221041         1.061759
 H         3.846734        -2.422459         1.578382
 H         4.354854        -2.521085        -0.081706
 H         5.218187        -1.588671         0.883615
 H        -0.376996        -0.535124         0.870059
 H        -0.538447         0.847940        -0.205644
 H        -0.385035        -0.687961        -0.951795
 H         2.286701         0.925656        -2.048887
 H         1.878627         2.080892        -0.852185
 H         4.545482         2.227684        -0.080742
 H         2.144031         0.441779         2.186427
