19
Iteration:  1263
 C         4.317883        -1.759222         0.528468
 C         3.160479        -0.807220         0.358899
 O         2.012180        -1.311224        -0.390591
 C         1.393341        -0.008192        -0.135745
 C        -0.135830         0.028956        -0.150056
 C         2.362257         1.043699        -0.954205
 C         3.299977         0.682732         0.110030
 O         4.601750         1.192444        -0.090254
 C         2.360990         0.147900         1.204669
 H         4.054788        -2.631216         1.041213
 H         4.894756        -1.882334        -0.409647
 H         5.015326        -1.199883         1.067582
 H        -0.371443        -0.863299         0.484417
 H        -0.527267         0.891847         0.418440
 H        -0.492550        -0.076079        -1.195350
 H         2.562440         0.764659        -1.996329
 H         1.988283         2.053709        -0.899305
 H         4.672033         2.173911        -0.084426
 H         1.999881         0.283340         2.184928
