19
Iteration:  3600charge 0 multiplicity 1
 C         4.304748        -1.762806         0.727479
 C         3.089198        -0.886518         0.354964
 O         1.977517        -1.298393        -0.444752
 C         1.365199        -0.026562        -0.124178
 C        -0.048910         0.003120        -0.002805
 C         2.267125         0.974814        -1.089900
 C         3.400689         0.622594        -0.119660
 O         4.628045         1.317869         0.043365
 C         2.412613         0.220501         1.029636
 H         4.229920        -2.451561         1.601858
 H         4.608829        -2.334261        -0.163823
 H         5.070257        -1.097912         1.007663
 H        -0.454906        -0.497465         0.886396
 H        -0.280004         1.076676        -0.069117
 H        -0.475627        -0.658635        -0.901397
 H         2.309255         0.818395        -2.186513
 H         1.912508         1.988930        -0.830254
 H         4.284257         2.227286         0.194005
 H         2.348412         0.435336         2.034088
