19
Iteration:  2249
 C         4.126742        -1.762760         0.749427
 C         3.166646        -0.798307         0.260231
 O         2.072526        -1.353723        -0.427240
 C         1.422187         0.009286        -0.048029
 C        -0.105032        -0.038542        -0.085981
 C         2.208212         1.072153        -0.938282
 C         3.431612         0.649951        -0.105934
 O         4.655114         1.252517        -0.098307
 C         2.434888         0.242518         1.086058
 H         3.573616        -2.668720         1.172117
 H         4.646740        -2.275170        -0.109965
 H         4.959921        -1.519587         1.394247
 H        -0.314241        -0.794725         0.743382
 H        -0.549386         0.889931         0.260953
 H        -0.310191        -0.286065        -1.081421
 H         2.291300         0.869102        -2.033890
 H         1.741896         2.077033        -0.776969
 H         4.504983         2.229490         0.080267
 H         2.326539         0.170467         2.203461
