19
Iteration:  4190charge 0 multiplicity 1
 C         4.250051        -1.774269         0.732069
 C         3.224301        -0.824147         0.297955
 O         2.117407        -1.277686        -0.453875
 C         1.465815         0.004962        -0.089223
 C        -0.086957        -0.073163        -0.063640
 C         2.194627         1.055596        -1.036156
 C         3.287411         0.637075        -0.109076
 O         4.572713         1.180377        -0.004240
 C         2.372246         0.255063         1.103996
 H         4.039705        -2.279118         1.673272
 H         4.564404        -2.482268        -0.027278
 H         5.145103        -1.207279         1.141979
 H        -0.651315        -0.828779         0.518410
 H        -0.491960         0.933194         0.344066
 H        -0.518808        -0.183771        -1.078238
 H         2.252699         0.882491        -2.100906
 H         1.844704         2.070553        -0.753828
 H         4.624596         2.149862         0.018896
 H         2.392593         0.685385         2.017390
