19
Iteration:  3721charge 0 multiplicity 1
 C         4.307436        -1.655634         0.646887
 C         3.175658        -0.757545         0.299822
 O         2.116943        -1.356184        -0.379325
 C         1.390935        -0.015334        -0.098505
 C        -0.063183        -0.038853        -0.072943
 C         2.205183         0.986691        -1.022467
 C         3.284730         0.644020        -0.072379
 O         4.622371         1.131058        -0.030936
 C         2.321216         0.293123         1.119282
 H         3.792169        -2.359673         1.315077
 H         4.646741        -2.217459        -0.234821
 H         5.127657        -1.240677         1.248333
 H        -0.643132        -0.508581         0.717257
 H        -0.321131         1.076954         0.107759
 H        -0.516906        -0.330631        -1.118678
 H         2.466138         0.790528        -2.045992
 H         2.062248         2.041685        -0.764586
 H         4.727717         2.121185        -0.055121
 H         2.098435         0.306349         2.256624
