19
Iteration:  1863
 C         4.200211        -1.837696         0.768376
 C         3.110245        -0.924298         0.283606
 O         1.992969        -1.307924        -0.468866
 C         1.397047        -0.069143        -0.115741
 C        -0.040292        -0.017520         0.023826
 C         2.117621         1.072161        -1.025397
 C         3.389278         0.735290        -0.201457
 O         4.699215         1.324050         0.077784
 C         2.545709         0.204681         0.941017
 H         3.854637        -2.609536         1.357914
 H         4.889135        -2.294881         0.044985
 H         4.742155        -1.354740         1.611220
 H        -0.501759        -0.800183         0.561368
 H        -0.462982         0.939811         0.394435
 H        -0.548244        -0.239199        -0.979140
 H         2.218336         0.863385        -2.082619
 H         1.765652         2.144355        -0.813908
 H         4.438071         2.180816         0.411142
 H         2.627105         0.511692         2.111086
