19
Iteration:  3393charge 0 multiplicity 1
 C         4.227326        -1.760524         0.646153
 C         3.137631        -0.795232         0.330685
 O         2.049348        -1.340046        -0.333273
 C         1.347701        -0.012034        -0.010321
 C        -0.123843        -0.040376        -0.186134
 C         2.149207         1.057392        -1.083383
 C         3.415077         0.694190        -0.094408
 O         4.722266         1.189152        -0.003693
 C         2.410105         0.283505         1.150204
 H         3.955256        -2.614739         1.363904
 H         4.534281        -2.165531        -0.376658
 H         5.179868        -1.336669         0.876403
 H        -0.709846        -0.407691         0.643026
 H        -0.552584         0.887992        -0.414049
 H        -0.256101        -0.804457        -0.991230
 H         2.204101         0.599424        -2.102766
 H         2.045356         2.153428        -0.928026
 H         4.795042         2.079118         0.463872
 H         2.432149         0.462583         2.286837
