19
Iteration:  1239
 C         4.336951        -1.771832         0.580113
 C         3.141239        -0.857661         0.333589
 O         1.980236        -1.310215        -0.439294
 C         1.384141         0.019327        -0.072763
 C        -0.084765         0.032537        -0.150306
 C         2.147344         1.029859        -0.922470
 C         3.361098         0.550318        -0.070698
 O         4.666234         1.245640         0.086218
 C         2.465370         0.227057         1.053837
 H         4.008730        -2.558449         1.177192
 H         4.807851        -2.028901        -0.353788
 H         5.129732        -1.204651         1.077007
 H        -0.545655        -0.568310         0.690846
 H        -0.398506         1.063717        -0.079385
 H        -0.272956        -0.509959        -1.146949
 H         1.884574         0.825945        -2.023838
 H         1.884166         2.025829        -0.701329
 H         4.489135         2.191514         0.312350
 H         2.384614         0.597760         2.142715
