19
Iteration:  3663
 C         4.232678        -1.782463         0.810507
 C         3.155885        -0.881166         0.293925
 O         2.051849        -1.397227        -0.357543
 C         1.416545         0.142141        -0.110175
 C        -0.063261        -0.044772        -0.037505
 C         2.192448         0.994642        -1.024070
 C         3.352109         0.663812        -0.149054
 O         4.617997         1.288425        -0.066695
 C         2.409314         0.260788         0.992165
 H         3.784616        -2.725364         1.251328
 H         4.740634        -2.124843        -0.130789
 H         4.978492        -1.364011         1.456351
 H        -0.200580        -1.092977         0.262775
 H        -0.611143         0.596683         0.547481
 H        -0.501217         0.025294        -1.078140
 H         2.487304         1.087873        -2.056425
 H         2.103901         2.039629        -0.712423
 H         4.464048         2.113975         0.405811
 H         2.417824         0.510105         1.986598
