19
Iteration:  3139charge 0 multiplicity 1
 C         4.295882        -1.815390         0.763358
 C         3.184405        -0.923148         0.258653
 O         1.955660        -1.308989        -0.367361
 C         1.447667         0.069340        -0.077290
 C        -0.092032        -0.023556        -0.044547
 C         2.233747         1.059122        -1.135152
 C         3.385360         0.578579        -0.132440
 O         4.566485         1.291456         0.046751
 C         2.461461         0.244789         1.019174
 H         4.037030        -2.568151         1.469224
 H         4.733319        -2.232191        -0.142337
 H         5.214745        -1.270148         1.198875
 H        -0.363661        -0.769287         0.712469
 H        -0.512216         0.833050         0.366461
 H        -0.583552         0.026853        -1.062455
 H         2.168999         0.648950        -2.116460
 H         2.066935         2.110859        -1.082544
 H         4.235907         2.153807         0.333144
 H         2.380149         0.629127         2.089308
