19
Iteration:   661
 C         4.211793        -1.923640         0.764764
 C         3.123261        -0.782689         0.322202
 O         2.055665        -1.222306        -0.576403
 C         1.482602         0.021953        -0.141476
 C        -0.006414        -0.151978         0.001504
 C         2.075295         1.152745        -0.899128
 C         3.433145         0.693294        -0.141800
 O         4.706819         1.241553         0.000795
 C         2.363809         0.238873         1.029673
 H         3.670590        -2.775098         1.188806
 H         4.643605        -2.305431        -0.107297
 H         4.944400        -1.571356         1.476290
 H        -0.035896        -1.130004         0.519131
 H        -0.670067         0.586848         0.595000
 H        -0.562359        -0.206912        -0.962817
 H         1.891991         0.975949        -1.997661
 H         1.717583         2.072309        -0.467980
 H         4.535580         2.214854         0.044139
 H         2.203680         0.416965         2.141773
