19
Iteration:  4449charge 0 multiplicity 1
 C         4.360202        -1.724165         0.780069
 C         3.240424        -0.857088         0.344494
 O         2.026966        -1.325286        -0.547097
 C         1.385414         0.074500        -0.120125
 C        -0.173888         0.001999        -0.012280
 C         2.309000         0.952913        -1.030832
 C         3.344668         0.660066        -0.001712
 O         4.602832         1.232740        -0.055499
 C         2.324247         0.199688         1.064605
 H         3.871161        -2.566676         1.168779
 H         4.773828        -2.032191        -0.111321
 H         5.053325        -1.376658         1.568982
 H        -0.274890        -0.765695         0.709087
 H        -0.586302         0.942869         0.400837
 H        -0.653890        -0.194264        -0.935952
 H         2.419254         0.661497        -2.101592
 H         1.832967         1.946946        -0.939202
 H         4.535298         2.234111        -0.112977
 H         2.204557         0.495431         2.156785
