19
Iteration:   949
 C         4.337502        -1.759717         0.563236
 C         3.211243        -0.805872         0.188527
 O         1.905045        -1.281688        -0.344215
 C         1.357104         0.009546        -0.114968
 C        -0.076984        -0.115779        -0.120390
 C         2.219328         1.084553        -0.893426
 C         3.407362         0.600802        -0.086297
 O         4.677239         1.250677         0.075779
 C         2.366591         0.214760         1.045552
 H         3.992099        -2.400989         1.357313
 H         4.711763        -2.347903        -0.337004
 H         5.046459        -1.130369         1.089627
 H        -0.653499        -0.932661         0.477317
 H        -0.461245         0.933485         0.022470
 H        -0.408679        -0.452389        -1.183677
 H         2.178140         1.042753        -1.987773
 H         2.147444         2.077073        -0.339943
 H         4.532253         2.141981         0.413455
 H         2.462521         0.386364         2.254139
