19
Iteration:   900
 C         4.313020        -1.713237         0.534437
 C         3.271637        -0.795268         0.300544
 O         2.108259        -1.246104        -0.453177
 C         1.408504        -0.086805        -0.128488
 C        -0.072188         0.044020         0.004216
 C         2.235591         0.974689        -1.001945
 C         3.347025         0.672295        -0.025013
 O         4.596455         1.163819         0.047537
 C         2.234031         0.175032         1.087514
 H         3.850443        -2.643940         1.035130
 H         4.725350        -1.991719        -0.401231
 H         4.938627        -1.354240         1.382812
 H        -0.498378        -0.862345         0.311753
 H        -0.386979         0.657843         0.873591
 H        -0.560117         0.488223        -0.856349
 H         2.507237         0.670776        -2.017972
 H         1.716677         1.872063        -0.794216
 H         4.521351         2.105920         0.328067
 H         1.796906         0.683041         1.829699
