19
Iteration:  1103
 C         4.427504        -1.755647         0.651464
 C         3.182689        -0.926301         0.353001
 O         2.034192        -1.312567        -0.380022
 C         1.327567         0.097635        -0.128940
 C        -0.147743         0.043362        -0.188347
 C         2.212476         1.066317        -0.924905
 C         3.357222         0.637955        -0.057723
 O         4.600161         1.220621        -0.074497
 C         2.394720         0.102060         1.136011
 H         4.125621        -2.745372         1.142479
 H         5.028274        -1.855387        -0.236866
 H         5.106295        -1.140228         1.190595
 H        -0.543483        -0.883085         0.169671
 H        -0.648185         0.715172         0.580290
 H        -0.487536         0.418244        -1.133122
 H         2.172407         0.892708        -1.980488
 H         2.079776         2.203906        -0.825976
 H         4.577850         1.916314         0.613175
 H         2.116577         0.320395         2.121689
