19
Iteration:  2085charge 0 multiplicity 1
 C         4.143306        -1.807915         0.717247
 C         3.082973        -0.861465         0.387492
 O         2.145860        -1.272120        -0.507669
 C         1.430016         0.070202        -0.111894
 C        -0.020588        -0.064733        -0.008277
 C         2.212173         1.040334        -0.934794
 C         3.376518         0.667366        -0.039957
 O         4.639417         1.201231        -0.160754
 C         2.360369         0.273643         1.118339
 H         3.771781        -2.788830         1.088857
 H         4.747346        -2.209446        -0.105327
 H         4.925379        -1.279056         1.308591
 H        -0.425525        -0.943031         0.653501
 H        -0.641498         0.717321         0.339985
 H        -0.375744        -0.236497        -0.979082
 H         2.482450         0.952222        -2.030664
 H         1.730358         2.053845        -0.955238
 H         4.620215         2.096535         0.165988
 H         2.318942         0.525084         2.123188
