19
Iteration:  1982charge 0 multiplicity 1
 C         4.261323        -1.689891         0.503587
 C         3.121833        -0.813817         0.401352
 O         2.012304        -1.323813        -0.339491
 C         1.392502        -0.034002        -0.101468
 C        -0.058124         0.071425        -0.115289
 C         2.220213         0.896141        -1.017858
 C         3.386249         0.630357        -0.065412
 O         4.665164         1.270752         0.006154
 C         2.369803         0.216373         1.088732
 H         4.197042        -2.431169         1.322448
 H         4.444663        -2.187771        -0.466365
 H         5.246633        -1.268790         0.864602
 H        -0.464717        -0.550431         0.577881
 H        -0.512591         1.082707         0.012262
 H        -0.522152        -0.354210        -1.062391
 H         2.167882         0.557854        -2.042883
 H         2.063360         1.973843        -0.804534
 H         4.714887         1.895311         0.791739
 H         2.230764         0.374558         2.275816
