19
Iteration:   257charge 0 multiplicity 1
 C         4.206508        -1.865826         0.532575
 C         3.258023        -0.772370         0.249599
 O         2.073795        -1.285584        -0.471296
 C         1.446488        -0.012467        -0.045135
 C        -0.056527         0.062280        -0.083324
 C         2.188336         0.921645        -1.001414
 C         3.312080         0.689587        -0.039705
 O         4.530274         1.332402         0.065730
 C         2.452409         0.231537         1.139427
 H         3.750349        -2.600385         1.251991
 H         4.715413        -2.144673        -0.401519
 H         5.078929        -1.523996         1.168158
 H        -0.373060        -0.729040         0.669859
 H        -0.440218         1.125882         0.106282
 H        -0.447546        -0.367755        -0.992244
 H         2.253926         0.556425        -2.096707
 H         1.785580         1.943798        -0.878042
 H         4.824228         1.018530         0.944925
 H         2.230570         0.492244         2.146710
