19
Iteration:  3890charge 0 multiplicity 1
 C         4.335379        -1.670434         0.697389
 C         3.143650        -0.854556         0.394140
 O         2.023973        -1.374727        -0.393614
 C         1.388842        -0.079439        -0.183969
 C        -0.113277         0.045918        -0.051560
 C         2.254514         1.007619        -1.079145
 C         3.344580         0.676567        -0.025881
 O         4.606394         1.208895        -0.071009
 C         2.410873         0.248723         1.076113
 H         4.155449        -2.630928         1.177730
 H         4.897590        -1.840554        -0.219061
 H         5.046411        -1.240278         1.315863
 H        -0.561362        -0.739100         0.623257
 H        -0.538962         0.897693         0.434640
 H        -0.479193        -0.113806        -1.058649
 H         2.321646         0.804679        -2.126399
 H         1.787733         1.936465        -0.867198
 H         4.729309         1.901298         0.643702
 H         2.111563         0.740952         2.038490
