19
Iteration:  1080
 C         4.341464        -1.689444         0.612170
 C         3.151766        -0.879163         0.376379
 O         1.965583        -1.291150        -0.525823
 C         1.389065        -0.051542        -0.193588
 C        -0.033879         0.009027        -0.047267
 C         2.305559         0.951677        -0.917861
 C         3.314587         0.701469         0.076130
 O         4.603677         1.207023        -0.076402
 C         2.315183         0.239950         1.113386
 H         4.020445        -2.675812         1.017625
 H         4.928505        -1.807512        -0.341115
 H         5.056903        -1.171599         1.213431
 H        -0.386143        -0.937331         0.386074
 H        -0.451038         0.768810         0.589682
 H        -0.358463         0.232019        -1.049575
 H         2.478829         0.778165        -1.959450
 H         1.942574         2.020326        -0.809888
 H         4.776761         1.911166         0.590800
 H         2.203201         0.402580         2.217981
