19
Iteration:  4402charge 0 multiplicity 1
 C         4.392501        -1.778122         0.640975
 C         3.303802        -0.824917         0.333972
 O         1.920200        -1.398051        -0.284834
 C         1.405615        -0.023612        -0.100854
 C        -0.141920         0.007951        -0.087418
 C         2.198436         1.008185        -1.161377
 C         3.299839         0.713808        -0.178859
 O         4.592221         1.263650         0.094242
 C         2.471388         0.263478         1.085900
 H         4.056999        -2.460687         1.431137
 H         4.561934        -2.354264        -0.346745
 H         5.251642        -1.331712         1.095071
 H        -0.565573        -0.901636         0.268967
 H        -0.709139         0.783177         0.430234
 H        -0.404762         0.199475        -1.217968
 H         2.437655         0.718465        -2.218451
 H         1.976882         2.071782        -1.173758
 H         4.416424         1.712857         0.934705
 H         2.353008         0.870933         1.921650
