19
Iteration:  4980charge 0 multiplicity 1
 C         4.202080        -1.857550         0.761571
 C         3.213907        -0.765788         0.294687
 O         2.086247        -1.269668        -0.545720
 C         1.355262         0.018645        -0.145109
 C        -0.048086        -0.026604        -0.039743
 C         2.202642         1.044453        -0.844261
 C         3.376828         0.616183        -0.053200
 O         4.540120         1.386422        -0.016429
 C         2.440139         0.163494         1.043898
 H         4.134793        -2.338776         1.681694
 H         4.042366        -2.792720         0.117541
 H         5.337040        -1.665954         0.618133
 H        -0.514444        -0.900589         0.338707
 H        -0.377076         0.932823         0.426309
 H        -0.386061         0.024305        -1.175271
 H         2.141930         0.918127        -1.934282
 H         1.926336         2.106915        -0.665653
 H         5.238613         0.729344        -0.300894
 H         2.249833         0.380902         2.131081
