19
Iteration:  1379charge 0 multiplicity 1
 C         4.222479        -1.898660         0.638212
 C         3.146515        -0.852845         0.297055
 O         2.065771        -1.298436        -0.474006
 C         1.450851        -0.004208        -0.144731
 C        -0.066614        -0.022808        -0.017458
 C         2.251229         1.023782        -0.961917
 C         3.370264         0.665441        -0.028428
 O         4.556717         1.389909        -0.029430
 C         2.385791         0.176623         1.075928
 H         3.840572        -2.558073         1.493072
 H         4.450858        -2.410947        -0.319849
 H         5.221536        -1.443102         0.999648
 H        -0.559204        -0.306147         0.942431
 H        -0.131022         1.024053        -0.066958
 H        -0.512307        -0.483230        -0.924185
 H         2.341180         0.917611        -2.088664
 H         1.917086         2.019324        -0.797621
 H         4.671451         1.787030         0.870900
 H         2.403332         0.506406         2.093442
