19
Iteration:  2789charge 0 multiplicity 1
 C         4.274279        -1.734614         0.634885
 C         3.209819        -0.888271         0.278798
 O         1.976024        -1.379903        -0.337300
 C         1.415822        -0.038429        -0.119015
 C        -0.086820         0.030542        -0.104040
 C         2.180243         1.038326        -1.026404
 C         3.366711         0.692249        -0.073420
 O         4.635714         1.249046         0.047340
 C         2.448435         0.240361         1.034824
 H         3.970068        -2.409770         1.506164
 H         4.337382        -2.408017        -0.265465
 H         5.217647        -1.229983         0.784428
 H        -0.416565        -0.708214         0.600173
 H        -0.353815         0.961397         0.292064
 H        -0.556323         0.010522        -1.181229
 H         2.475083         0.908815        -2.144856
 H         1.784918         2.116234        -0.800244
 H         4.288444         1.984420         0.631526
 H         2.495620         0.343764         2.167921
