19
Iteration:  1986charge 0 multiplicity 1
 C         4.278259        -1.690846         0.548315
 C         3.089063        -0.790901         0.428132
 O         2.031808        -1.354722        -0.380445
 C         1.384114        -0.050626        -0.107051
 C        -0.075531         0.083489        -0.091588
 C         2.250902         0.916850        -1.016536
 C         3.390119         0.630643        -0.070230
 O         4.661918         1.280664        -0.013799
 C         2.365047         0.200508         1.111591
 H         4.185450        -2.487986         1.232710
 H         4.314352        -2.098265        -0.460969
 H         5.273172        -1.353645         0.791258
 H        -0.597856        -0.548871         0.721254
 H        -0.543321         1.033179        -0.010778
 H        -0.457885        -0.254314        -1.019252
 H         2.301757         0.684390        -2.094664
 H         2.037651         2.019496        -0.959998
 H         4.586484         1.797747         0.780250
 H         2.348842         0.364990         2.156815
