19
Iteration:  3643
 C         4.180616        -1.821232         0.779376
 C         3.208230        -0.819173         0.334122
 O         2.039908        -1.299476        -0.457002
 C         1.448085        -0.131363        -0.144582
 C        -0.070151        -0.026369        -0.002315
 C         2.148651         0.986163        -1.049651
 C         3.381151         0.660855        -0.114780
 O         4.671601         1.333558        -0.052442
 C         2.432615         0.313921         1.060800
 H         3.845987        -2.637246         1.467230
 H         4.660267        -2.228660        -0.128004
 H         4.822535        -1.287740         1.401465
 H        -0.660279        -0.845744         0.430533
 H        -0.228176         0.920099         0.503181
 H        -0.758226        -0.008694        -1.031289
 H         2.298465         0.687716        -2.121685
 H         1.661696         1.967169        -1.046569
 H         4.729518         1.956543         0.727301
 H         2.231815         0.541065         2.044093
