19
Iteration:  2081charge 0 multiplicity 1
 C         4.144136        -1.829488         0.722092
 C         3.096943        -0.861227         0.410912
 O         2.127564        -1.267328        -0.514981
 C         1.422353         0.073206        -0.112442
 C        -0.020549        -0.101047         0.028340
 C         2.202589         1.084089        -0.974882
 C         3.334302         0.659296        -0.080702
 O         4.666024         1.217390        -0.141786
 C         2.387390         0.258193         1.098266
 H         3.789669        -2.706735         1.280687
 H         4.752634        -2.155572        -0.159394
 H         4.892784        -1.382092         1.467878
 H        -0.357994        -0.916541         0.603369
 H        -0.577716         0.824311         0.324201
 H        -0.294169        -0.179727        -1.080278
 H         2.341202         0.831040        -2.008989
 H         1.840616         2.134585        -0.884452
 H         4.732556         2.184603         0.094703
 H         2.111961         0.331769         2.222851
