19
Iteration:  1807
 C         4.309482        -1.760824         0.570461
 C         3.102660        -0.843213         0.422657
 O         2.065809        -1.305871        -0.385967
 C         1.408467         0.027877        -0.167627
 C        -0.117680         0.050647        -0.127697
 C         2.136688         0.902210        -1.043950
 C         3.344903         0.744497         0.038328
 O         4.694495         1.197651        -0.000845
 C         2.441214         0.245309         1.174350
 H         4.127744        -2.658195         1.167640
 H         4.423257        -2.266824        -0.397579
 H         5.253418        -1.275803         0.618189
 H        -0.328159        -0.665094         0.632313
 H        -0.659673         0.992598         0.088769
 H        -0.532022        -0.327305        -1.161587
 H         2.323656         0.538456        -2.096882
 H         1.859292         1.968867        -1.016686
 H         4.487147         2.119911         0.214000
 H         2.107278         0.469408         2.209157
