19
Iteration:  4427
 C         4.226486        -1.706133         0.611470
 C         3.167897        -0.854867         0.376280
 O         2.064305        -1.315713        -0.365175
 C         1.399610        -0.023718        -0.158229
 C        -0.064748        -0.025082        -0.039980
 C         2.198960         0.886537        -1.055291
 C         3.379736         0.658289        -0.108262
 O         4.642177         1.262142         0.032971
 C         2.357157         0.290319         1.012388
 H         4.039618        -2.484577         1.258543
 H         4.748407        -1.916856        -0.244599
 H         4.782836        -1.006443         1.292561
 H        -0.555833        -0.776448         0.504734
 H        -0.250882         0.892467         0.556238
 H        -0.561938         0.220370        -0.945955
 H         2.461076         0.530225        -2.082397
 H         1.925967         1.959685        -1.097271
 H         4.518697         1.906172         0.725486
 H         2.339272         0.386009         2.141786
