19
Iteration:  2171charge 0 multiplicity 1
 C         4.342431        -1.785684         0.593888
 C         3.119286        -0.833288         0.390177
 O         2.054318        -1.430106        -0.416406
 C         1.394246         0.070577        -0.203555
 C        -0.137806         0.091223         0.004034
 C         2.231198         0.955659        -1.047515
 C         3.333801         0.723076         0.011973
 O         4.635040         1.235063        -0.004492
 C         2.372234         0.212997         1.062746
 H         4.141205        -2.491437         1.478224
 H         4.502051        -2.337668        -0.383830
 H         5.283319        -1.253208         0.981204
 H        -0.301130        -0.655660         0.917732
 H        -0.471644         1.082084         0.211049
 H        -0.509730        -0.243637        -0.930743
 H         2.467636         0.612575        -2.088814
 H         1.996294         2.107337        -1.153427
 H         4.723629         2.117020         0.400079
 H         2.003086         0.525832         2.019630
