19
Iteration:  1094charge 0 multiplicity 1
 C         4.487565        -1.784128         0.637773
 C         3.112783        -0.874423         0.359869
 O         1.972115        -1.304758        -0.432271
 C         1.432881         0.085171        -0.095679
 C        -0.089832         0.040478        -0.150590
 C         2.249275         1.088007        -0.982034
 C         3.334826         0.606390         0.028332
 O         4.576807         1.226445        -0.107682
 C         2.305356         0.125388         1.157108
 H         4.346715        -2.795426         1.169276
 H         4.998372        -1.897517        -0.270764
 H         5.114024        -1.179000         1.326794
 H        -0.450849        -0.963525         0.067778
 H        -0.442795         0.785077         0.698284
 H        -0.623902         0.185870        -1.098970
 H         2.482873         0.847987        -2.043851
 H         1.828833         2.138966        -0.852799
 H         4.722929         1.894697         0.584220
 H         1.973005         0.352919         2.056573
