19
Iteration:  1639charge 0 multiplicity 1
 C         4.387574        -1.768137         0.637500
 C         3.168720        -0.805274         0.382772
 O         1.999434        -1.319017        -0.432354
 C         1.363881        -0.017518        -0.212361
 C        -0.124319         0.033093        -0.073144
 C         2.272764         1.013315        -0.972829
 C         3.322815         0.683132         0.066103
 O         4.628416         1.195873        -0.125703
 C         2.364093         0.198715         1.147706
 H         3.903320        -2.541473         1.319311
 H         4.955300        -2.134856        -0.200258
 H         5.251659        -1.228625         1.153278
 H        -0.657193        -0.684993         0.648350
 H        -0.582501         1.038479         0.173445
 H        -0.527956        -0.068035        -1.133657
 H         2.377507         0.598797        -2.043398
 H         1.912648         2.085813        -0.957672
 H         4.836134         1.958318         0.430337
 H         2.148891         0.457158         2.284313
