19
Iteration:   315
 C         4.113966        -1.841240         0.755857
 C         3.215280        -0.829887         0.211923
 O         2.037390        -1.227304        -0.549951
 C         1.382048         0.033501        -0.058890
 C        -0.045620        -0.121952        -0.000598
 C         2.204539         1.132825        -0.961506
 C         3.389491         0.650613        -0.129313
 O         4.607324         1.286091         0.048590
 C         2.523914         0.141715         1.036428
 H         3.784163        -2.719039         1.213899
 H         4.706169        -2.289723        -0.109897
 H         4.830396        -1.314693         1.359058
 H        -0.267493        -0.921334         0.745055
 H        -0.438120         0.883870         0.452214
 H        -0.507576        -0.307387        -1.021394
 H         2.112356         0.754523        -2.009549
 H         1.956379         2.223663        -0.890886
 H         4.360261         2.193160         0.363526
 H         2.478845         0.136276         2.123982
