19
Iteration:  1101
 C         4.445896        -1.776988         0.658169
 C         3.161140        -0.917259         0.355094
 O         2.021928        -1.309691        -0.385587
 C         1.348899         0.106793        -0.120607
 C        -0.130816         0.048140        -0.181373
 C         2.219502         1.078213        -0.938350
 C         3.354084         0.631376        -0.040371
 O         4.591566         1.222503        -0.084430
 C         2.378428         0.093560         1.134441
 H         4.163468        -2.719895         1.139251
 H         5.099304        -1.808073        -0.270906
 H         5.139316        -1.138275         1.165078
 H        -0.567401        -0.893521         0.172100
 H        -0.575067         0.646018         0.568245
 H        -0.547670         0.357762        -1.128793
 H         2.239029         0.916665        -1.999558
 H         2.040574         2.175135        -0.886363
 H         4.603530         1.889868         0.598960
 H         1.993142         0.359867         2.214365
