19
Iteration:   189charge 0 multiplicity 1
 C         4.289323        -1.828958         0.641056
 C         3.209267        -0.830553         0.311845
 O         2.058302        -1.261248        -0.555616
 C         1.395292        -0.058171        -0.096645
 C        -0.115404        -0.000472        -0.090934
 C         2.196150         1.041136        -0.961009
 C         3.286000         0.809689         0.048017
 O         4.595095         1.234035         0.052424
 C         2.443299         0.212659         1.165532
 H         4.107112        -2.695804         1.306527
 H         4.694980        -2.200005        -0.225189
 H         5.220237        -1.368751         1.105827
 H        -0.523331        -0.832194         0.427760
 H        -0.423219         0.947738         0.198193
 H        -0.433203        -0.153298        -1.157014
 H         2.331604         0.804053        -2.023033
 H         1.702825         2.047065        -0.861644
 H         4.967890         0.798907        -0.722660
 H         2.182280         0.514727         2.252510
