19
Iteration:  1772
 C         4.326846        -1.647307         0.600763
 C         3.169040        -0.883977         0.264370
 O         1.966192        -1.324840        -0.361517
 C         1.358777        -0.005215        -0.055923
 C        -0.131426         0.001233        -0.166393
 C         2.188237         1.064375        -0.961892
 C         3.337552         0.534909        -0.126445
 O         4.654020         1.149050         0.087747
 C         2.513096         0.280477         1.075747
 H         4.145291        -2.111259         1.627465
 H         4.533903        -2.292319        -0.235223
 H         5.097579        -0.981655         0.926659
 H        -0.491767        -0.628001         0.676023
 H        -0.509781         1.008183        -0.118055
 H        -0.364643        -0.592077        -1.096247
 H         2.269409         1.119452        -2.112932
 H         1.982147         2.070822        -0.629696
 H         4.500611         2.093735         0.198670
 H         2.497725         0.543936         2.042023
