19
Iteration:   425charge 0 multiplicity 1
 C         4.281828        -1.795082         0.509344
 C         3.213325        -0.724638         0.298625
 O         2.015138        -1.404299        -0.399563
 C         1.416717        -0.057975        -0.087242
 C        -0.087741        -0.014729        -0.068966
 C         2.221500         1.042306        -0.975824
 C         3.370821         0.681652        -0.108072
 O         4.581936         1.219004         0.172300
 C         2.448690         0.292838         1.013185
 H         3.794556        -2.474591         1.088528
 H         4.482291        -2.278689        -0.475474
 H         5.179605        -1.376402         0.987845
 H        -0.489522        -0.615684         0.715127
 H        -0.304161         1.026758         0.007295
 H        -0.557959        -0.319581        -1.035707
 H         2.242300         0.814021        -2.032580
 H         1.740006         2.011324        -0.679894
 H         4.413907         2.155749         0.410742
 H         2.299138         0.486955         2.140588
