19
Iteration:    60
 C         4.384025        -1.815321         0.543013
 C         3.134836        -0.911422         0.298874
 O         1.936029        -1.316099        -0.379440
 C         1.366793         0.068007        -0.125583
 C        -0.058909        -0.035448        -0.185064
 C         2.234972         1.091407        -0.869567
 C         3.388849         0.550936        -0.037039
 O         4.533338         1.299544         0.127341
 C         2.418074         0.252867         1.093189
 H         4.351054        -2.723330         1.232577
 H         4.857324        -2.089000        -0.447812
 H         5.167783        -1.002855         0.815082
 H        -0.337767        -0.755640         0.615106
 H        -0.566198         0.873329         0.224970
 H        -0.392744        -0.262081        -1.287658
 H         2.221051         1.058829        -2.006929
 H         1.994890         2.132661        -0.521015
 H         5.043557         1.254163        -0.728175
 H         2.446658         0.926719         1.994764
