19
Iteration:  1440charge 0 multiplicity 1
 C         4.315512        -1.682805         0.530609
 C         3.152079        -0.813938         0.385401
 O         2.065158        -1.300828        -0.431176
 C         1.373955         0.120353        -0.128803
 C        -0.079575        -0.038290        -0.073756
 C         2.231861         0.957880        -0.982576
 C         3.315140         0.691086         0.001494
 O         4.649010         1.111575         0.038301
 C         2.377113         0.236511         1.126402
 H         4.048281        -2.593968         1.012910
 H         4.426805        -2.091733        -0.450299
 H         5.158046        -1.337020         1.090638
 H        -0.586438        -0.785564         0.555465
 H        -0.492912         1.087061        -0.057975
 H        -0.443317        -0.467007        -1.032404
 H         2.239200         0.684389        -2.013283
 H         1.750406         2.011125        -0.785701
 H         4.831613         2.071185        -0.095146
 H         2.143443         0.361038         2.221715
