19
Iteration:   739
 C         4.356765        -1.704669         0.523914
 C         3.215876        -0.783831         0.317002
 O         2.050332        -1.390209        -0.360391
 C         1.449975        -0.073724        -0.197467
 C        -0.088589         0.094908        -0.082149
 C         2.219651         1.059090        -0.977136
 C         3.311661         0.626266        -0.045862
 O         4.523658         1.222087         0.043380
 C         2.367434         0.147833         1.088239
 H         4.013382        -2.486226         1.094694
 H         4.614966        -2.055257        -0.455323
 H         5.219917        -1.284698         1.082203
 H        -0.578056        -0.557148         0.613820
 H        -0.159309         1.026325         0.509992
 H        -0.735114         0.082154        -1.028257
 H         2.501907         0.902611        -2.042109
 H         1.965182         2.048922        -0.676879
 H         4.458748         1.863295         0.762447
 H         2.250647         0.314389         2.148390
