19
Iteration:  2146
 C         4.362522        -1.712106         0.560966
 C         3.153304        -0.810989         0.311147
 O         1.956038        -1.293555        -0.349632
 C         1.386998        -0.057139        -0.087356
 C        -0.117735         0.062564        -0.075852
 C         2.212351         0.959445        -1.018574
 C         3.398474         0.556825        -0.127585
 O         4.582946         1.185369         0.095577
 C         2.470523         0.258596         1.057666
 H         4.040186        -2.292590         1.359386
 H         4.711133        -2.210635        -0.316924
 H         5.130980        -1.143356         1.119044
 H        -0.616697        -0.489708         0.667034
 H        -0.184362         1.148355         0.005224
 H        -0.405521        -0.239871        -1.143287
 H         2.341193         0.702617        -2.022556
 H         1.845693         1.978226        -0.849947
 H         4.307285         2.081667         0.202463
 H         2.536894         0.663275         2.062290
