19
Iteration:  3303
 C         4.249816        -1.822128         0.855145
 C         3.209184        -0.866740         0.326045
 O         1.978703        -1.355177        -0.477160
 C         1.438869        -0.004412        -0.157617
 C        -0.095498         0.062437         0.028316
 C         2.224623         0.978656        -1.051090
 C         3.344066         0.683005        -0.140715
 O         4.594821         1.308944        -0.020743
 C         2.461519         0.213427         0.947966
 H         3.727716        -2.598052         1.387725
 H         4.771248        -2.110085        -0.060441
 H         4.944065        -1.206367         1.515768
 H        -0.303814        -0.881234         0.526487
 H        -0.505730         0.786700         0.604502
 H        -0.538331         0.058454        -1.008758
 H         2.345353         0.756940        -2.113437
 H         2.001614         2.051612        -0.751658
 H         4.803687         1.985541         0.681328
 H         2.316178         0.525418         1.935966
