19
Iteration:  3911charge 0 multiplicity 1
 C         4.370637        -1.733877         0.624730
 C         3.108479        -0.773230         0.316390
 O         1.976925        -1.300222        -0.361470
 C         1.367980         0.062083        -0.157242
 C        -0.065033        -0.000856        -0.052604
 C         2.263422         0.840905        -1.079102
 C         3.398827         0.631429        -0.063033
 O         4.601548         1.283690         0.007975
 C         2.341319         0.238305         1.076364
 H         4.181501        -2.545727         1.311790
 H         4.890920        -2.063454        -0.280819
 H         5.039701        -1.194655         1.228991
 H        -0.409681        -0.500292         0.890273
 H        -0.389986         1.029631         0.257160
 H        -0.417787        -0.402187        -0.952135
 H         2.442732         0.301389        -1.962630
 H         1.980007         1.831265        -1.138630
 H         4.616441         2.013134         0.641552
 H         2.109029         0.183906         2.128306
