19
Iteration:  1222
 C         4.265533        -1.807892         0.621917
 C         3.255811        -0.841707         0.119091
 O         2.018608        -1.304693        -0.426234
 C         1.384169        -0.028520        -0.048970
 C        -0.155811        -0.006598        -0.088145
 C         2.125730         0.979712        -0.966189
 C         3.409200         0.719081        -0.130676
 O         4.647865         1.214819         0.152539
 C         2.484462         0.276606         1.060499
 H         3.801797        -2.594558         1.343293
 H         4.803202        -2.428461        -0.172102
 H         5.068130        -1.238900         1.115966
 H        -0.630209        -0.255752         0.839433
 H        -0.645888         0.965389        -0.312254
 H        -0.543921        -0.539020        -0.908346
 H         2.228167         0.904850        -2.006421
 H         1.720329         2.012195        -0.638734
 H         4.513438         1.958671         0.784095
 H         2.528015         0.723870         1.979733
