19
Iteration:  3991
 C         4.158616        -1.737560         0.759485
 C         3.159392        -0.807858         0.334832
 O         2.070553        -1.194561        -0.529753
 C         1.312789         0.002738        -0.083779
 C        -0.155390        -0.162363        -0.102827
 C         2.260594         0.951137        -0.934929
 C         3.435638         0.670498         0.023984
 O         4.648486         1.242912        -0.168390
 C         2.476152         0.249675         1.133671
 H         3.905779        -2.294256         1.660822
 H         4.633642        -2.424867         0.113806
 H         5.066850        -1.200083         0.944592
 H        -0.439266        -0.844014         0.686391
 H        -0.663076         0.759293         0.029006
 H        -0.569686        -0.525916        -1.109808
 H         2.471470         0.799839        -1.996274
 H         2.019667         2.009979        -0.895873
 H         4.619265         2.089332         0.299644
 H         2.409478         0.427419         2.322076
