19
Iteration:  4665charge 0 multiplicity 1
 C         4.133273        -1.925380         0.725494
 C         3.241000        -0.801113         0.251092
 O         2.055933        -1.238430        -0.405023
 C         1.394691         0.090127        -0.066716
 C        -0.172156        -0.193211        -0.040715
 C         2.128352         1.051871        -0.990497
 C         3.431164         0.745953        -0.083913
 O         4.658886         1.357324        -0.000352
 C         2.508299         0.286772         1.022719
 H         3.620208        -2.780641         1.066555
 H         4.946736        -2.207336        -0.008110
 H         4.712440        -1.554870         1.602734
 H        -0.450349        -0.805657         0.801473
 H        -0.830001         0.705546         0.025954
 H        -0.446295        -0.792686        -0.993870
 H         2.361823         0.701768        -1.995691
 H         1.739771         2.067034        -0.942108
 H         5.242582         0.780294        -0.510176
 H         2.423633         0.505959         2.089830
