19
Iteration:   991charge 0 multiplicity 1
 C         4.255297        -1.939431         0.621141
 C         3.210540        -0.786973         0.267424
 O         2.086662        -1.209754        -0.565196
 C         1.411025        -0.072593        -0.082406
 C        -0.135938        -0.040709        -0.072539
 C         2.212712         1.018836        -0.924230
 C         3.358864         0.772812         0.067328
 O         4.648055         1.339678        -0.066396
 C         2.335430         0.165010         1.152326
 H         3.933079        -2.528401         1.431466
 H         4.494375        -2.684175        -0.216627
 H         5.182874        -1.545117         1.090150
 H        -0.378860        -0.227967         1.003653
 H        -0.552678         0.886083        -0.325963
 H        -0.606810        -0.729133        -0.793507
 H         2.540613         0.627163        -1.890385
 H         1.724460         1.991870        -0.867979
 H         4.626211         2.208326         0.412480
 H         2.240328         0.090888         2.362886
