19
Iteration:  3740
 C         4.352688        -1.730283         0.706608
 C         3.156231        -0.885487         0.406203
 O         1.983488        -1.324722        -0.408591
 C         1.451899        -0.011324        -0.183316
 C        -0.140707         0.030486        -0.109653
 C         2.235318         1.007655        -1.003386
 C         3.319065         0.672021        -0.057865
 O         4.628062         1.216334        -0.038026
 C         2.432244         0.227293         1.071944
 H         4.351249        -2.547442         1.508315
 H         4.656742        -2.131157        -0.305620
 H         5.074266        -1.042632         1.063040
 H        -0.427850        -0.535106         0.743712
 H        -0.628511         0.931469        -0.007292
 H        -0.697376        -0.635217        -0.825687
 H         2.262508         0.710428        -2.078792
 H         1.659049         1.952514        -0.907550
 H         4.535096         2.106587         0.425083
 H         2.481141         0.758208         2.020262
