19
Iteration:  2219charge 0 multiplicity 1
 C         4.272811        -1.888979         0.805363
 C         3.177583        -0.883226         0.191792
 O         2.031315        -1.263215        -0.441763
 C         1.428646         0.084257        -0.074164
 C        -0.145146        -0.072941        -0.055895
 C         2.141293         1.107964        -0.983059
 C         3.414142         0.610043        -0.179347
 O         4.636288         1.247157         0.029532
 C         2.476662         0.267854         1.029627
 H         3.727264        -2.524794         1.625139
 H         4.674779        -2.568188         0.001142
 H         5.039075        -1.378030         1.357644
 H        -0.167333        -0.803355         0.736882
 H        -0.711616         0.850141         0.389860
 H        -0.594387        -0.396846        -1.066329
 H         2.161234         0.821606        -2.132348
 H         1.708584         2.121596        -0.886383
 H         4.408132         2.163139         0.227480
 H         2.616381         0.834340         1.983091
