19
Iteration:  3240charge 0 multiplicity 1
 C         4.153739        -1.831148         0.698995
 C         3.239790        -0.778136         0.346090
 O         2.021437        -1.299854        -0.350736
 C         1.407868        -0.039855        -0.092752
 C        -0.073516        -0.069388        -0.125390
 C         2.157776         1.036989        -0.992448
 C         3.374401         0.734598        -0.112960
 O         4.656131         1.236780         0.021415
 C         2.491925         0.253807         0.990315
 H         3.695165        -2.552645         1.422576
 H         4.598233        -2.461265        -0.113485
 H         4.964011        -1.435628         1.325767
 H        -0.343349        -0.735116         0.739445
 H        -0.468863         0.931026         0.100658
 H        -0.632387        -0.468715        -1.078281
 H         2.115977         0.805890        -2.056132
 H         2.079842         2.110379        -0.945567
 H         4.589527         2.191632        -0.193562
 H         2.272690         0.504461         1.986440
