19
Iteration:  3185
 C         4.301797        -1.668056         0.568737
 C         3.137162        -0.725392         0.390803
 O         1.983100        -1.420729        -0.373039
 C         1.386404        -0.026740        -0.100584
 C        -0.085742         0.040506        -0.115159
 C         2.222255         0.975413        -1.026053
 C         3.361301         0.736559        -0.046316
 O         4.695957         1.145713        -0.037936
 C         2.323491         0.190092         1.157910
 H         4.039357        -2.133130         1.526062
 H         4.617460        -2.281829        -0.264105
 H         5.165512        -1.033013         0.880038
 H        -0.518042        -0.312299         0.838280
 H        -0.417972         1.054042        -0.309236
 H        -0.318572        -0.491414        -1.117201
 H         2.574834         0.648122        -1.997361
 H         1.938306         1.994085        -1.055853
 H         4.757268         1.992815         0.379061
 H         2.264008         0.248782         2.204291
