19
Iteration:  4516
 C         4.263059        -1.932437         0.667268
 C         3.219012        -0.787952         0.305044
 O         2.002673        -1.209126        -0.388852
 C         1.387337         0.057785        -0.077979
 C        -0.086650        -0.133566        -0.087338
 C         2.213140         1.021761        -1.056931
 C         3.361600         0.702955        -0.057703
 O         4.532129         1.357266         0.042698
 C         2.465182         0.226414         1.091482
 H         3.863678        -2.662723         1.378878
 H         4.660416        -2.460336        -0.146072
 H         5.109992        -1.501870         1.261297
 H        -0.358338        -0.671080         0.856365
 H        -0.463312         0.886545        -0.229731
 H        -0.319576        -0.692934        -0.944351
 H         2.452413         0.902942        -2.132773
 H         1.915312         2.100470        -0.956302
 H         5.023366         0.954255        -0.682597
 H         2.410642         0.492203         2.192453
