19
Iteration:   408
 C         4.348450        -1.780572         0.493572
 C         3.257833        -0.812281         0.210392
 O         2.070328        -1.350612        -0.277860
 C         1.376932         0.020665        -0.113746
 C        -0.150927         0.074703        -0.136330
 C         2.060742         0.995275        -1.074266
 C         3.326210         0.756132        -0.033464
 O         4.670175         1.219275         0.177082
 C         2.412399         0.139897         1.097567
 H         4.024286        -2.736370         1.145967
 H         4.553982        -2.317909        -0.426095
 H         5.288145        -1.417893         0.929913
 H        -0.539268        -0.660115         0.629372
 H        -0.681644         1.031481         0.072900
 H        -0.446753        -0.271467        -1.166954
 H         2.234445         0.669542        -2.118049
 H         1.759982         2.035453        -0.996266
 H         4.676824         2.098037         0.591384
 H         2.435878         0.506725         2.092934
