19
Iteration:   952
 C         4.330035        -1.778082         0.562807
 C         3.224396        -0.785850         0.209600
 O         1.929219        -1.291467        -0.368838
 C         1.358265         0.005030        -0.090980
 C        -0.055765        -0.098331        -0.136820
 C         2.204864         1.087574        -0.875808
 C         3.407913         0.579530        -0.113117
 O         4.649515         1.246325         0.066417
 C         2.366189         0.237303         1.074852
 H         3.874064        -2.429403         1.417840
 H         4.680761        -2.336862        -0.284597
 H         5.080624        -1.137344         1.016108
 H        -0.585953        -0.854268         0.466543
 H        -0.443522         1.001719        -0.018487
 H        -0.355395        -0.567841        -1.090693
 H         2.168446         1.119400        -1.990284
 H         2.056555         2.096724        -0.352652
 H         4.495151         2.123661         0.443701
 H         2.469044         0.300915         2.122359
