19
Iteration:  2070
 C         4.190972        -1.857291         0.808617
 C         3.181984        -0.797146         0.330010
 O         2.011450        -1.240830        -0.499814
 C         1.431461         0.030166        -0.099354
 C        -0.058429        -0.113281        -0.000922
 C         2.175030         1.099716        -1.038187
 C         3.413244         0.716696        -0.080444
 O         4.683885         1.214543        -0.086264
 C         2.413438         0.190532         1.066605
 H         3.584833        -2.694965         1.204884
 H         4.679163        -2.223544        -0.135883
 H         4.957891        -1.375684         1.511514
 H        -0.239451        -0.937291         0.611935
 H        -0.391624         0.830311         0.512463
 H        -0.606459        -0.387978        -0.979083
 H         2.042237         0.853253        -2.074875
 H         2.038027         2.163001        -0.776289
 H         4.557605         2.218292        -0.040592
 H         2.017652         0.307246         2.158705
