19
Iteration:  4746charge 0 multiplicity 1
 C         4.354983        -1.709061         0.564398
 C         3.183260        -0.862522         0.242754
 O         1.980252        -1.399184        -0.392522
 C         1.465307        -0.053310        -0.080741
 C        -0.073873         0.160148        -0.089429
 C         2.154092         0.854981        -1.045795
 C         3.337027         0.682593        -0.011693
 O         4.538679         1.365743         0.138280
 C         2.427666         0.188639         1.063331
 H         4.021280        -2.121052         1.624833
 H         4.638944        -2.580061        -0.006380
 H         5.203698        -0.985033         0.666332
 H        -0.587084        -0.540974         0.687588
 H        -0.101294         1.191877         0.302181
 H        -0.479733         0.104301        -1.056789
 H         2.304656         0.624106        -2.083535
 H         1.844401         1.896196        -0.938801
 H         5.072286         1.003460        -0.562035
 H         2.322132         0.367826         2.185196
