19
Iteration:   641
 C         4.172390        -1.830316         0.692752
 C         3.210050        -0.747501         0.286706
 O         2.171808        -1.209428        -0.574693
 C         1.374268         0.001462        -0.138556
 C        -0.174294        -0.152128         0.036595
 C         2.223835         1.125466        -0.938260
 C         3.380979         0.680060         0.001945
 O         4.677931         1.226806        -0.086635
 C         2.337533         0.115213         1.086630
 H         3.740702        -2.507682         1.351643
 H         4.495361        -2.360540        -0.211368
 H         4.994469        -1.331114         1.269423
 H        -0.480049        -0.703317         0.891662
 H        -0.589151         0.843241         0.240017
 H        -0.658324        -0.449296        -0.914008
 H         2.426054         0.939843        -1.991385
 H         2.035958         2.099866        -0.576515
 H         4.691114         2.010742         0.469233
 H         2.189379         0.436929         2.164211
