19
Iteration:  4509
 C         4.254082        -1.915920         0.700108
 C         3.247867        -0.860840         0.209131
 O         2.024258        -1.188130        -0.371595
 C         1.438106         0.040346        -0.050090
 C        -0.114799        -0.157548        -0.136188
 C         2.187768         1.071634        -1.026548
 C         3.386792         0.644335        -0.033722
 O         4.564439         1.338516         0.035935
 C         2.463977         0.317126         1.094569
 H         3.689714        -2.666458         1.341119
 H         4.862266        -2.580602        -0.011483
 H         4.943774        -1.320158         1.262378
 H        -0.587403        -0.526834         0.819593
 H        -0.562373         0.836109        -0.135176
 H        -0.626133        -0.792249        -0.925073
 H         2.177759         0.883618        -2.110709
 H         1.801224         2.052321        -0.735319
 H         4.989096         1.230791        -0.860018
 H         2.261292         0.383880         2.102058
