19
Iteration:   867charge 0 multiplicity 1
 C         4.254878        -1.791696         0.678392
 C         3.148112        -0.921619         0.239473
 O         1.973031        -1.266803        -0.468808
 C         1.446765         0.019681        -0.090358
 C        -0.114987        -0.014180        -0.073108
 C         2.168847         1.013799        -0.928348
 C         3.436736         0.628953        -0.134273
 O         4.588646         1.350591         0.074602
 C         2.545880         0.136305         1.059794
 H         3.900604        -2.809770         1.084693
 H         5.035450        -2.060793        -0.041317
 H         4.859026        -1.204296         1.406243
 H        -0.394686        -0.963522         0.331902
 H        -0.534570         0.810238         0.528847
 H        -0.562963         0.127376        -1.064852
 H         2.168881         0.898283        -2.023443
 H         1.816337         2.025219        -0.823289
 H         4.326243         2.284961         0.254729
 H         2.496397         0.258838         2.090967
