19
Iteration:  1960
 C         4.400636        -1.805758         0.550720
 C         3.177475        -0.843047         0.242772
 O         1.928409        -1.320482        -0.299423
 C         1.368709         0.016854        -0.045662
 C        -0.106346        -0.012619        -0.136796
 C         2.214925         1.033217        -1.035810
 C         3.308357         0.705796        -0.056043
 O         4.611141         1.153868         0.073378
 C         2.479605         0.323155         1.107309
 H         4.255724        -2.584507         1.320682
 H         4.695715        -2.283271        -0.393041
 H         5.348839        -1.389121         0.976248
 H        -0.623909        -0.682787         0.425527
 H        -0.650739         0.944969        -0.063317
 H        -0.332722        -0.334769        -1.200752
 H         2.490008         0.622239        -2.005673
 H         1.736374         2.037782        -1.093538
 H         4.485359         2.030671         0.426144
 H         2.568155         0.852856         2.173405
