19
Iteration:  4045charge 0 multiplicity 1
 C         4.315020        -1.679168         0.710296
 C         3.182079        -0.740764         0.331292
 O         2.052127        -1.399120        -0.408736
 C         1.339586        -0.038395        -0.130494
 C        -0.129150         0.032496        -0.053617
 C         2.189515         0.952381        -1.045311
 C         3.411011         0.597190        -0.086705
 O         4.642514         1.216598         0.054747
 C         2.389747         0.298862         1.006618
 H         3.973418        -2.662416         1.066915
 H         4.828459        -1.987753        -0.212709
 H         5.002266        -1.311636         1.478499
 H        -0.405192        -0.953562         0.310204
 H        -0.375259         0.850687         0.575540
 H        -0.769252         0.155115        -1.003643
 H         2.224135         0.685230        -2.092822
 H         1.775792         1.915179        -0.921561
 H         4.460004         2.146491        -0.046576
 H         2.531045         0.569610         2.184488
