19
Iteration:   304
 C         4.219335        -1.901287         0.749309
 C         3.165023        -0.882479         0.211834
 O         1.935271        -1.260528        -0.558889
 C         1.467377         0.079300        -0.146720
 C        -0.038418        -0.120995         0.052623
 C         2.233716         1.085705        -0.971305
 C         3.412817         0.673153        -0.033475
 O         4.603133         1.360150         0.004081
 C         2.444557         0.183577         1.036700
 H         3.569761        -2.586691         1.249670
 H         4.817329        -2.260661        -0.144123
 H         4.919443        -1.526061         1.471046
 H        -0.293600        -1.016201         0.681209
 H        -0.648678         0.820285         0.415239
 H        -0.481966        -0.375477        -0.965088
 H         2.422872         0.975198        -2.091676
 H         1.940635         2.134256        -0.719576
 H         4.482547         2.141069         0.544904
 H         2.535223         0.264574         2.095768
