19
Iteration:  1268charge 0 multiplicity 1
 C         4.309849        -1.710575         0.510090
 C         3.163932        -0.810807         0.339015
 O         2.019234        -1.322710        -0.410878
 C         1.369980        -0.019222        -0.159483
 C        -0.098146         0.005002        -0.141180
 C         2.322948         1.011952        -0.927563
 C         3.333386         0.709506         0.171905
 O         4.638405         1.176338        -0.104058
 C         2.329593         0.187962         1.184674
 H         3.872867        -2.685968         1.021563
 H         4.938152        -2.018084        -0.361514
 H         5.180742        -1.262568         1.158255
 H        -0.445052        -0.808937         0.488785
 H        -0.665650         0.799843         0.432147
 H        -0.564371         0.183436        -1.127830
 H         2.555902         0.586974        -1.921310
 H         2.038325         2.127031        -0.913656
 H         4.513186         2.134323        -0.070367
 H         2.006653         0.358388         2.263106
