19
Iteration:  4003
 C         4.314371        -1.750369         0.835358
 C         3.178379        -0.782150         0.292063
 O         2.026828        -1.267144        -0.496740
 C         1.379655         0.118361        -0.104598
 C        -0.134141        -0.149611        -0.101813
 C         2.190684         1.036071        -0.933224
 C         3.368820         0.639813        -0.085085
 O         4.667197         1.218401        -0.135852
 C         2.400929         0.222218         1.115771
 H         3.823024        -2.368739         1.569862
 H         4.406270        -2.334424        -0.044411
 H         5.136373        -1.214391         1.327748
 H        -0.348383        -0.991998         0.508385
 H        -0.649991         0.736730         0.285395
 H        -0.423294        -0.437716        -1.165015
 H         2.164751         0.561510        -1.930169
 H         2.036522         2.122303        -0.827748
 H         4.797230         2.022546         0.376646
 H         2.302064         0.239426         2.247357
