19
Iteration:  4456
 C         4.347345        -1.773864         0.796678
 C         3.250871        -0.818688         0.304367
 O         2.015083        -1.329840        -0.526100
 C         1.376859         0.098609        -0.157626
 C        -0.090754         0.004642        -0.025075
 C         2.231159         0.965798        -0.953979
 C         3.343680         0.689818         0.010210
 O         4.590086         1.210768        -0.051146
 C         2.339766         0.208945         1.018731
 H         3.802265        -2.595864         1.351258
 H         5.150748        -2.102267        -0.067944
 H         5.012310        -1.301972         1.533173
 H        -0.344343        -0.728942         0.762047
 H        -0.650084         0.884980         0.333393
 H        -0.687247        -0.403212        -0.966693
 H         2.527502         0.712823        -1.985807
 H         1.927817         2.011129        -0.852778
 H         4.458922         2.137159        -0.389267
 H         2.262796         0.350069         2.052029
