19
Iteration:  1367
 C         4.214491        -1.875702         0.659348
 C         3.282711        -0.817673         0.301459
 O         2.060695        -1.247120        -0.596070
 C         1.411471        -0.079205        -0.145513
 C        -0.048581         0.039664         0.071897
 C         2.277413         0.968515        -1.002837
 C         3.333531         0.693177         0.061209
 O         4.519374         1.348838        -0.052936
 C         2.405406         0.212932         1.085688
 H         3.678325        -2.585188         1.422192
 H         4.385267        -2.623437        -0.129948
 H         5.207234        -1.475585         1.137117
 H        -0.513832        -0.640985         0.825002
 H        -0.513876         1.020202         0.142329
 H        -0.543978        -0.297047        -0.882135
 H         2.572726         0.700520        -2.055603
 H         1.885395         1.960829        -0.828206
 H         4.838875         1.750996         0.750005
 H         1.939265         0.431958         2.075575
