19
Iteration:  1160charge 0 multiplicity 1
 C         4.201728        -1.896457         0.667378
 C         3.194849        -0.813040         0.331640
 O         2.088600        -1.254732        -0.538392
 C         1.376255         0.062692        -0.159149
 C        -0.142866        -0.093838         0.032169
 C         2.308779         1.085498        -1.020721
 C         3.370531         0.635131        -0.073557
 O         4.615475         1.310463         0.047523
 C         2.406866         0.201329         1.095920
 H         3.930620        -2.720700         1.378565
 H         4.292208        -2.380855        -0.261497
 H         5.109494        -1.470384         1.154571
 H        -0.209091        -0.866463         0.795399
 H        -0.533446         0.955723         0.273485
 H        -0.628452        -0.602052        -0.832934
 H         2.422867         0.847879        -2.100209
 H         1.951904         2.093127        -0.714586
 H         4.377945         2.261408         0.010667
 H         2.163131         0.382574         2.120336
