19
Iteration:  1710
 C         4.104223        -1.896255         0.772372
 C         3.161158        -0.864237         0.354132
 O         2.037372        -1.307950        -0.503411
 C         1.446120         0.035233        -0.127154
 C        -0.022596        -0.079220         0.042252
 C         2.163505         1.024467        -1.067383
 C         3.421857         0.687248        -0.069244
 O         4.671538         1.374473        -0.041031
 C         2.420962         0.228128         1.022168
 H         3.555976        -2.777597         1.118774
 H         4.842887        -2.175600        -0.031980
 H         4.919941        -1.553463         1.420343
 H        -0.230420        -0.844379         0.748689
 H        -0.480585         0.805292         0.521562
 H        -0.593180        -0.167448        -0.974740
 H         2.375393         0.789357        -2.112591
 H         1.913262         2.088906        -0.947021
 H         4.471703         2.278676         0.237513
 H         2.274651         0.432788         2.056539
