19
Iteration:  2680charge 0 multiplicity 1
 C         4.377624        -1.844257         0.631791
 C         3.207789        -0.828492         0.281874
 O         1.981342        -1.273872        -0.382554
 C         1.410859         0.078399        -0.047719
 C        -0.155362         0.031357        -0.080398
 C         2.145679         0.974294        -1.006616
 C         3.356630         0.576239        -0.152786
 O         4.617368         1.222812         0.080981
 C         2.517531         0.269922         1.077757
 H         3.946102        -2.837917         0.861478
 H         5.091477        -1.904761        -0.220190
 H         4.779987        -1.526162         1.580946
 H        -0.807392        -0.613220         0.444041
 H        -0.556492         1.013395        -0.040906
 H        -0.414944        -0.487175        -1.121361
 H         2.039176         0.584257        -2.019510
 H         1.935943         2.037947        -0.864640
 H         4.460699         2.152506         0.263674
 H         2.351965         0.869162         1.958569
