19
Iteration:  2755
 C         4.234142        -1.829138         0.818296
 C         3.209607        -0.812958         0.248222
 O         2.080965        -1.224197        -0.567903
 C         1.390971         0.085458        -0.093474
 C        -0.104313        -0.072104        -0.002908
 C         2.098689         1.071889        -0.999474
 C         3.394277         0.556476        -0.016689
 O         4.676705         1.222258        -0.010424
 C         2.429588         0.211853         1.000695
 H         3.709852        -2.336636         1.659345
 H         4.526582        -2.563452         0.031521
 H         5.145770        -1.286126         1.138254
 H        -0.331487        -0.850731         0.695290
 H        -0.525654         0.810916         0.480462
 H        -0.705262        -0.325932        -0.962039
 H         2.324622         0.804683        -2.092643
 H         1.730715         2.177537        -0.839920
 H         4.574090         2.220520         0.044067
 H         2.330100         0.405506         2.092656
