19
Iteration:  4080charge 0 multiplicity 1
 C         4.314669        -1.762270         0.650698
 C         3.163579        -0.854310         0.372768
 O         1.978981        -1.362652        -0.426702
 C         1.413909        -0.018511        -0.161884
 C        -0.045477         0.071922        -0.061297
 C         2.302430         0.849991        -1.058807
 C         3.301453         0.680215         0.005778
 O         4.552452         1.318192        -0.041992
 C         2.379636         0.266705         1.136156
 H         3.886937        -2.654788         1.013347
 H         4.838692        -1.818973        -0.279728
 H         5.040001        -1.216861         1.348491
 H        -0.253216        -0.651859         0.679276
 H        -0.401614         0.999135         0.471705
 H        -0.461204        -0.094978        -1.073320
 H         2.728414         0.399613        -1.962743
 H         1.955331         1.871084        -1.291931
 H         4.460155         2.229598         0.243884
 H         2.464985         0.403930         2.206838
