19
Iteration:  3788
 C         4.227118        -1.884474         0.709230
 C         3.179249        -0.799364         0.323802
 O         2.044779        -1.351341        -0.420954
 C         1.393506        -0.000045        -0.199771
 C        -0.052787        -0.038247        -0.076342
 C         2.146334         0.943026        -1.077126
 C         3.314965         0.765133        -0.022482
 O         4.585797         1.296332        -0.005058
 C         2.579461         0.310595         1.086249
 H         3.880208        -2.439656         1.561801
 H         4.465214        -2.564217        -0.091112
 H         5.125592        -1.454360         1.288092
 H        -0.457471        -0.528137         0.876934
 H        -0.325368         1.123067         0.018104
 H        -0.649505        -0.681111        -0.777667
 H         2.321126         0.694726        -2.112302
 H         1.662325         1.931729        -1.077645
 H         4.487266         2.077630         0.529924
 H         2.680047         0.724352         2.128668
