19
Iteration:  1929
 C         4.243928        -1.775589         0.626855
 C         3.116380        -0.820350         0.285200
 O         2.037634        -1.275854        -0.412859
 C         1.399339         0.027925        -0.123650
 C        -0.086084        -0.057177        -0.069563
 C         2.174958         0.990972        -0.928601
 C         3.405536         0.608890        -0.066697
 O         4.721503         1.222838         0.027505
 C         2.364470         0.295708         1.074437
 H         3.925563        -2.634527         1.100286
 H         4.677150        -2.214873        -0.266664
 H         5.060662        -1.180999         1.119819
 H        -0.407580        -0.841024         0.558686
 H        -0.468507         0.935575         0.202426
 H        -0.474722        -0.411169        -1.048802
 H         2.265786         0.683698        -1.945349
 H         1.769263         2.003229        -0.607655
 H         4.619583         2.172889        -0.287279
 H         2.199157         0.652370         2.225470
