19
Iteration:   516charge 0 multiplicity 1
 C         4.320374        -1.889369         0.715193
 C         3.188724        -0.843157         0.243009
 O         2.069247        -1.205046        -0.447096
 C         1.362537        -0.013445        -0.133345
 C        -0.142580        -0.103815        -0.047533
 C         2.203750         1.167490        -0.941610
 C         3.379890         0.616141        -0.108916
 O         4.594491         1.230818         0.022845
 C         2.453302         0.215364         1.042085
 H         3.800751        -2.699952         1.226607
 H         4.877745        -2.245941        -0.094696
 H         4.914828        -1.309788         1.372541
 H        -0.448848        -1.103073         0.371262
 H        -0.508367         0.831945         0.416415
 H        -0.689776        -0.054939        -1.032048
 H         2.054645         1.148787        -2.044417
 H         1.925197         2.181580        -0.541692
 H         4.634311         2.137753         0.300669
 H         2.362899         0.472019         2.040456
