19
Iteration:  4160
 C         4.174688        -1.714277         0.740334
 C         3.151896        -0.816254         0.392272
 O         2.016651        -1.311583        -0.522436
 C         1.408020        -0.002752        -0.139722
 C        -0.099124        -0.175924        -0.012353
 C         2.296242         1.083515        -0.985354
 C         3.404692         0.731850        -0.024103
 O         4.780312         1.261958        -0.132588
 C         2.264891         0.211323         1.134853
 H         3.977988        -2.394253         1.621245
 H         4.240511        -2.541152        -0.017291
 H         5.160618        -1.234127         0.775978
 H        -0.370987        -0.825138         0.896623
 H        -0.703993         0.746076        -0.158901
 H        -0.501624        -0.715081        -0.869062
 H         2.403712         0.893067        -2.097616
 H         1.782738         2.055745        -0.693177
 H         4.813648         2.206008         0.032689
 H         1.968539         0.358911         2.171522
