19
Iteration:  4343charge 0 multiplicity 1
 C         4.264756        -1.853478         0.734464
 C         3.229979        -0.766001         0.299414
 O         2.117311        -1.263244        -0.420916
 C         1.399370         0.004071        -0.192685
 C        -0.150561        -0.054670        -0.101240
 C         2.185845         1.020622        -0.986508
 C         3.286105         0.748765         0.032716
 O         4.618533         1.222722        -0.064102
 C         2.439077         0.203696         1.114072
 H         3.837849        -2.347690         1.688951
 H         4.521423        -2.642358        -0.040756
 H         5.226902        -1.210763         0.850300
 H        -0.347324        -0.643861         0.891771
 H        -0.442768         1.044231        -0.029941
 H        -0.655917        -0.594993        -0.880473
 H         2.502728         0.819839        -1.994362
 H         1.795704         2.034166        -0.779181
 H         4.622107         2.150948        -0.436765
 H         2.045882        -0.031444         2.144973
