19
Iteration:  3985
 C         4.134731        -1.769037         0.749454
 C         3.141919        -0.835088         0.322111
 O         2.082409        -1.194694        -0.499474
 C         1.421671        -0.043041        -0.098810
 C        -0.180083        -0.156868        -0.107155
 C         2.288479         0.991101        -0.961049
 C         3.383250         0.679054         0.028493
 O         4.664701         1.262791        -0.161836
 C         2.449582         0.253732         1.151079
 H         3.910126        -2.229770         1.726178
 H         4.516587        -2.476996        -0.086396
 H         5.045983        -1.050396         0.936825
 H        -0.565306        -0.705441         0.794880
 H        -0.753148         0.833011         0.105505
 H        -0.391426        -0.616372        -1.039239
 H         2.472219         0.661166        -2.025930
 H         1.837631         2.024319        -0.728365
 H         4.540479         2.133495         0.220423
 H         2.493608         0.463353         2.117704
