19
Iteration:   998
 C         4.248611        -1.895076         0.644064
 C         3.204206        -0.746554         0.235403
 O         2.066495        -1.250988        -0.536587
 C         1.418920        -0.014442        -0.100963
 C        -0.119412        -0.049045        -0.046296
 C         2.286385         1.020655        -0.895044
 C         3.369989         0.691901         0.024886
 O         4.634554         1.360457        -0.042623
 C         2.342523         0.152497         1.118386
 H         3.763444        -2.602035         1.403792
 H         4.321012        -2.449112        -0.279603
 H         5.261343        -1.577688         1.027840
 H        -0.473379        -0.371860         0.906417
 H        -0.567381         0.949382        -0.272057
 H        -0.636230        -0.868387        -0.548072
 H         2.456987         0.630157        -1.942174
 H         1.852316         1.994529        -0.770350
 H         4.492753         2.249621         0.370862
 H         2.036333        -0.052576         2.057300
