19
Iteration:   955charge 0 multiplicity 1
 C         4.307571        -1.790732         0.576598
 C         3.226922        -0.789928         0.236423
 O         1.960987        -1.301048        -0.398147
 C         1.374981         0.000555        -0.063207
 C        -0.058247        -0.072012        -0.154729
 C         2.188649         1.096353        -0.861765
 C         3.406734         0.582271        -0.130266
 O         4.622825         1.237010         0.055092
 C         2.381527         0.251917         1.090799
 H         3.840189        -2.421511         1.365744
 H         4.668795        -2.350806        -0.269076
 H         5.161969        -1.158052         0.950138
 H        -0.484148        -0.744366         0.541868
 H        -0.446456         0.921234        -0.071903
 H        -0.293188        -0.608513        -1.051982
 H         2.165777         1.186065        -1.970714
 H         1.935375         2.059107        -0.457661
 H         4.439850         2.118293         0.472559
 H         2.463430         0.242801         2.111343
