19
Iteration:  1844charge 0 multiplicity 1
 C         4.249504        -1.851825         0.688645
 C         3.243796        -0.828723         0.183633
 O         1.977452        -1.363718        -0.341833
 C         1.412306         0.082776        -0.172693
 C        -0.092000        -0.013584        -0.027371
 C         2.263755         1.012640        -1.059718
 C         3.376747         0.643661        -0.072022
 O         4.577280         1.292314         0.046083
 C         2.470072         0.252748         1.042447
 H         3.706493        -2.611053         1.275059
 H         4.679869        -2.218463        -0.278025
 H         5.039288        -1.451903         1.427855
 H        -0.277305        -0.902261         0.718191
 H        -0.555795         0.903019         0.440304
 H        -0.612575        -0.206399        -1.001029
 H         2.223449         0.885269        -2.127176
 H         1.834027         2.042554        -0.836752
 H         4.540691         2.165447         0.420573
 H         2.190605         0.525343         2.152305
