19
Iteration:  2002
 C         4.297538        -1.794394         0.628514
 C         3.206395        -0.878801         0.341126
 O         2.060123        -1.365810        -0.448241
 C         1.396209         0.005283        -0.130089
 C        -0.166371         0.067841        -0.036397
 C         2.303618         1.003561        -1.040360
 C         3.328180         0.654877         0.008726
 O         4.566150         1.266933        -0.042627
 C         2.391774         0.254303         1.093971
 H         4.099599        -2.644334         1.448304
 H         4.583954        -2.304492        -0.340488
 H         5.178069        -1.139072         0.949779
 H        -0.563824        -0.521855         0.820004
 H        -0.249707         1.188190         0.175963
 H        -0.745297        -0.300367        -0.978051
 H         2.603810         0.575039        -2.026347
 H         1.837660         1.975738        -0.907336
 H         4.779195         1.935851         0.630801
 H         2.097751         0.624484         2.148721
