19
Iteration:  3873
 C         4.264184        -1.665427         0.735704
 C         3.205378        -0.837673         0.309759
 O         2.115589        -1.363809        -0.382440
 C         1.377997        -0.036234        -0.109987
 C        -0.154361        -0.024940        -0.113439
 C         2.156550         0.985704        -0.938493
 C         3.348452         0.644366        -0.140439
 O         4.642732         1.146456        -0.054872
 C         2.431079         0.320155         1.047784
 H         3.755759        -2.576065         1.146672
 H         4.965484        -1.910867        -0.093255
 H         4.913629        -1.025664         1.459948
 H        -0.586508        -0.888657         0.381454
 H        -0.390291         0.957702         0.392555
 H        -0.692418         0.257150        -1.084919
 H         2.223081         0.937637        -2.091388
 H         1.846830         2.075864        -0.731776
 H         4.495603         2.031408         0.399067
 H         2.520002         0.538054         2.181825
