19
Iteration:  1917charge 0 multiplicity 1
 C         4.226561        -1.809871         0.666426
 C         3.151329        -0.836607         0.359409
 O         1.979184        -1.327390        -0.544845
 C         1.410816        -0.025336        -0.111755
 C        -0.032507        -0.059259        -0.016128
 C         2.247063         1.016548        -0.948009
 C         3.351894         0.749631         0.032132
 O         4.710924         1.239793        -0.073174
 C         2.341899         0.249668         1.074455
 H         3.834561        -2.537672         1.345035
 H         4.734938        -2.127134        -0.235411
 H         4.957580        -1.348834         1.373263
 H        -0.268484        -0.734383         0.709486
 H        -0.521680         0.870879         0.313800
 H        -0.467928        -0.299138        -1.023868
 H         2.314120         0.892199        -2.021341
 H         1.904875         2.090756        -0.895379
 H         4.698762         2.201570        -0.126417
 H         2.139607         0.534283         2.224053
