19
Iteration:   415charge 0 multiplicity 1
 C         4.303192        -1.784665         0.492537
 C         3.313546        -0.769771         0.244333
 O         2.043424        -1.419756        -0.312181
 C         1.364639         0.014660        -0.107037
 C        -0.117389         0.050548        -0.131124
 C         2.125008         1.017263        -1.010327
 C         3.325548         0.744857        -0.108813
 O         4.634473         1.208275         0.192250
 C         2.421047         0.186765         1.068847
 H         3.863305        -2.412042         1.131043
 H         4.560822        -2.221680        -0.469431
 H         5.273272        -1.532457         0.940406
 H        -0.483149        -0.554417         0.676167
 H        -0.518996         0.985679         0.153958
 H        -0.541683        -0.380204        -1.120996
 H         2.178596         0.782469        -2.049030
 H         1.753232         2.088485        -1.006979
 H         4.639671         2.146520         0.536649
 H         2.335902         0.522699         2.211449
