19
Iteration:  3668
 C         4.253241        -1.803972         0.802617
 C         3.199049        -0.847303         0.270852
 O         2.018143        -1.381031        -0.358141
 C         1.382880         0.130323        -0.073165
 C        -0.060788        -0.067091        -0.048450
 C         2.254345         1.037251        -1.022316
 C         3.343874         0.607116        -0.149318
 O         4.583911         1.266435        -0.065443
 C         2.416314         0.289077         0.991454
 H         3.905882        -2.692251         1.294745
 H         4.766825        -2.107286        -0.101725
 H         4.948364        -1.314966         1.539908
 H        -0.303342        -1.118414         0.164252
 H        -0.711074         0.650735         0.612591
 H        -0.500237        -0.051739        -1.095160
 H         2.599556         1.057708        -2.093142
 H         2.070337         2.103647        -0.749094
 H         4.454026         2.199363         0.279834
 H         2.399081         0.521853         2.119054
