19
Iteration:  3954
 C         4.289157        -1.886456         0.680003
 C         3.255316        -0.802143         0.295128
 O         2.047923        -1.297391        -0.309928
 C         1.486792        -0.018794        -0.152266
 C        -0.101851        -0.010454        -0.101749
 C         2.114332         0.992814        -1.044780
 C         3.358372         0.623849        -0.110501
 O         4.611473         1.285392         0.084042
 C         2.401334         0.330705         0.977195
 H         3.891412        -2.442887         1.538989
 H         4.350638        -2.516939        -0.226431
 H         5.135240        -1.356384         1.026139
 H        -0.349532        -0.442250         0.926793
 H        -0.550941         1.019870        -0.162843
 H        -0.416899        -0.742024        -0.783128
 H         2.053746         0.915851        -2.113090
 H         1.823940         1.903099        -0.573179
 H         4.431412         2.245284        -0.079760
 H         2.176968         0.417331         2.004173
