19
Iteration:  2473
 C         4.384117        -1.683967         0.660017
 C         3.174949        -0.813837         0.344468
 O         2.020540        -1.334366        -0.443008
 C         1.420021         0.103187        -0.114377
 C        -0.127899         0.052205        -0.007562
 C         2.189820         0.961626        -1.092108
 C         3.265845         0.635283        -0.070790
 O         4.658713         1.122811        -0.002507
 C         2.358596         0.197435         1.155065
 H         3.998826        -2.699248         0.737908
 H         4.881777        -1.711881        -0.339757
 H         5.207539        -1.427536         1.407918
 H        -0.490684        -0.587330         0.686198
 H        -0.448067         1.046606         0.189777
 H        -0.566986        -0.165376        -1.082327
 H         2.495593         0.490157        -2.082519
 H         1.712222         1.947389        -1.139435
 H         4.725431         1.894825         0.563484
 H         2.359611         0.730701         2.150309
