19
Iteration:  2537charge 0 multiplicity 1
 C         4.221264        -1.925692         0.740443
 C         3.162903        -0.822139         0.323358
 O         2.120687        -1.179127        -0.512053
 C         1.416239         0.018172        -0.109525
 C        -0.059399        -0.018613        -0.016208
 C         2.196302         0.978235        -1.019916
 C         3.367093         0.678724         0.012555
 O         4.614110         1.253261        -0.125547
 C         2.355766         0.238536         1.148471
 H         3.875292        -2.640247         1.453157
 H         4.467312        -2.305672        -0.243671
 H         5.186736        -1.502297         1.187712
 H        -0.411634        -0.658871         0.750281
 H        -0.313427         1.054772         0.176395
 H        -0.498102        -0.491787        -0.991713
 H         2.358745         0.779062        -2.067046
 H         1.664765         1.854788        -0.834120
 H         4.480590         2.179478         0.041030
 H         2.246217         0.345178         2.232145
