19
Iteration:  4832charge 0 multiplicity 1
 C         4.162052        -1.861459         0.670362
 C         3.231779        -0.793533         0.346195
 O         2.038448        -1.294373        -0.497296
 C         1.394600         0.042140        -0.130295
 C        -0.104734        -0.143067        -0.043369
 C         2.174621         1.042607        -0.936891
 C         3.420815         0.694492        -0.106876
 O         4.604352         1.384762        -0.013644
 C         2.439496         0.238015         1.090129
 H         3.569094        -2.602873         1.232194
 H         4.749465        -2.266367        -0.105502
 H         4.760031        -1.513037         1.528644
 H        -0.377431        -1.033067         0.676596
 H        -0.346076         0.770191         0.576376
 H        -0.720538        -0.198592        -0.911568
 H         2.293869         0.806716        -1.990581
 H         2.018726         2.121843        -0.796317
 H         5.293801         0.775278        -0.399404
 H         2.579236         0.638673         2.146345
