19
Iteration:  3115
 C         4.107520        -1.811679         0.739833
 C         3.157089        -0.793179         0.284482
 O         2.010471        -1.348186        -0.478211
 C         1.446472        -0.095965        -0.144081
 C        -0.097063        -0.023261         0.013337
 C         2.253774         0.943765        -1.045635
 C         3.419641         0.696922        -0.086617
 O         4.687328         1.374383        -0.010677
 C         2.449668         0.275701         1.075660
 H         3.438799        -2.509578         1.268474
 H         4.671889        -2.321671        -0.095274
 H         4.859994        -1.504277         1.468017
 H        -0.281912        -0.883997         0.619129
 H        -0.498354         0.791181         0.709099
 H        -0.630595        -0.029093        -0.886743
 H         2.222747         0.520176        -2.043801
 H         1.959067         2.007379        -0.963515
 H         4.484988         2.303484        -0.038721
 H         2.500422         0.464534         2.192987
