19
Iteration:  1269charge 0 multiplicity 1
 C         4.311038        -1.704447         0.510555
 C         3.163106        -0.811623         0.335905
 O         2.020929        -1.323574        -0.415834
 C         1.368940        -0.017874        -0.161088
 C        -0.093395         0.002757        -0.136584
 C         2.310900         1.007137        -0.918846
 C         3.341013         0.714041         0.176007
 O         4.645664         1.174072        -0.103991
 C         2.323010         0.195072         1.178113
 H         3.867119        -2.658666         0.994467
 H         4.912057        -2.041455        -0.351385
 H         5.179957        -1.285168         1.176205
 H        -0.472314        -0.822790         0.469882
 H        -0.652855         0.777362         0.417700
 H        -0.580491         0.212359        -1.117190
 H         2.564244         0.556606        -1.925530
 H         2.049270         2.098784        -0.920409
 H         4.488410         2.119888        -0.067147
 H         2.015832         0.373217         2.291512
