19
Iteration:  2799
 C         4.358237        -1.838885         0.587025
 C         3.139917        -0.817635         0.285224
 O         2.008402        -1.360750        -0.324437
 C         1.365289         0.030824        -0.130962
 C        -0.089450         0.066861        -0.102235
 C         2.257559         0.970893        -1.006175
 C         3.331306         0.648836        -0.069080
 O         4.617221         1.287234         0.040684
 C         2.368456         0.228171         1.075081
 H         4.314361        -2.523063         1.470423
 H         4.621263        -2.460297        -0.304753
 H         5.216195        -1.209504         0.802656
 H        -0.498282        -0.738015         0.445806
 H        -0.387539         1.020749         0.248396
 H        -0.526612        -0.157768        -1.138163
 H         2.161447         0.642778        -2.093036
 H         1.972605         2.084798        -0.939620
 H         4.698672         2.058742         0.673416
 H         2.369577         0.549490         2.168954
