19
Iteration:  1184
 C         4.172885        -1.848932         0.632800
 C         3.107202        -0.903360         0.275293
 O         2.038980        -1.240412        -0.573799
 C         1.400964         0.055040        -0.200479
 C        -0.011082        -0.093645         0.097184
 C         2.312367         1.006332        -0.966832
 C         3.386919         0.633010         0.036180
 O         4.649510         1.364633         0.021027
 C         2.347214         0.249039         1.011219
 H         3.972763        -2.540662         1.414487
 H         4.294341        -2.509892        -0.239101
 H         4.989945        -1.252667         1.115118
 H        -0.094289        -0.549422         1.124329
 H        -0.479284         0.878598        -0.138175
 H        -0.404914        -0.963495        -0.566339
 H         2.486455         0.685841        -2.065094
 H         1.808920         1.923603        -0.747572
 H         4.520564         2.094664         0.676781
 H         2.026174         0.645482         2.092719
