19
Iteration:  4737charge 0 multiplicity 1
 C         4.344559        -1.679041         0.620035
 C         3.154586        -0.873641         0.277894
 O         2.021720        -1.364102        -0.403723
 C         1.378851        -0.102980        -0.145376
 C        -0.072210         0.190409        -0.041049
 C         2.219444         0.873708        -1.037937
 C         3.305208         0.742203        -0.058951
 O         4.508997         1.327342         0.143508
 C         2.493225         0.137717         1.056134
 H         4.293118        -2.313905         1.556332
 H         4.520411        -2.400127        -0.222294
 H         5.261529        -1.158762         0.736642
 H        -0.611873        -0.364206         0.705453
 H        -0.244141         1.237334         0.194878
 H        -0.606046        -0.016069        -0.964574
 H         2.313775         0.406741        -2.041077
 H         1.786658         1.879833        -1.084639
 H         5.193231         1.172512        -0.491912
 H         2.441068         0.249314         2.191835
