19
Iteration:  1420
 C         4.303034        -1.807928         0.533887
 C         3.216732        -0.836382         0.225946
 O         1.965941        -1.243946        -0.340100
 C         1.332291        -0.058941         0.006318
 C        -0.094135        -0.039788        -0.192432
 C         2.226307         1.062245        -0.983658
 C         3.323995         0.640712        -0.086019
 O         4.648551         1.207687         0.104849
 C         2.465571         0.262681         1.095128
 H         4.101466        -2.541393         1.343027
 H         4.631264        -2.262181        -0.378064
 H         5.049958        -1.166429         1.072103
 H        -0.642385        -0.624325         0.560948
 H        -0.518336         1.012479        -0.111830
 H        -0.513492        -0.649151        -0.906886
 H         2.353767         0.756672        -2.007394
 H         1.917242         2.144024        -0.971511
 H         4.537797         2.131801         0.342091
 H         2.694884         0.667025         2.094867
