19
Iteration:  4297charge 0 multiplicity 1
 C         4.273085        -1.747052         0.779139
 C         3.166345        -0.837179         0.215886
 O         1.926979        -1.304877        -0.407154
 C         1.445761         0.058452        -0.165902
 C        -0.098654        -0.108658        -0.071231
 C         2.200437         1.068276        -1.010510
 C         3.372105         0.645437        -0.085080
 O         4.628660         1.235091        -0.018915
 C         2.518257         0.258893         1.066338
 H         3.702509        -2.573136         1.157833
 H         4.962309        -2.089281         0.045566
 H         4.863108        -1.139045         1.563657
 H        -0.207864        -0.610289         0.854631
 H        -0.765335         0.779216        -0.196645
 H        -0.355136        -0.874637        -0.797078
 H         2.137162         0.798887        -2.062719
 H         1.865628         2.072302        -0.778548
 H         4.534588         1.988904         0.626189
 H         2.575604         0.270657         2.110601
