19
Iteration:  1552charge 0 multiplicity 1
 C         4.156053        -1.917904         0.677369
 C         3.162941        -0.805894         0.349458
 O         2.020535        -1.254688        -0.502880
 C         1.457900         0.003673        -0.174306
 C        -0.001117        -0.045611         0.044874
 C         2.256437         0.958151        -0.967108
 C         3.436193         0.691695        -0.018091
 O         4.625313         1.372184        -0.033982
 C         2.302600         0.200871         1.068461
 H         3.915320        -2.808467         1.259902
 H         4.327082        -2.407445        -0.210708
 H         5.068315        -1.374735         0.924250
 H        -0.233445        -0.827547         0.817390
 H        -0.384678         1.027731         0.141300
 H        -0.406915        -0.483198        -0.916857
 H         2.371332         0.536303        -2.007182
 H         1.894196         1.968453        -0.900481
 H         4.374809         2.277658         0.153205
 H         2.221640         0.759027         2.018281
