19
Iteration:  2301charge 0 multiplicity 1
 C         4.311515        -1.666637         0.597588
 C         3.164491        -0.842383         0.284602
 O         2.005586        -1.357692        -0.329801
 C         1.375305         0.046825        -0.162797
 C        -0.101978         0.045490        -0.064362
 C         2.169683         1.015519        -1.017518
 C         3.393912         0.570804        -0.078641
 O         4.650785         1.143417         0.046258
 C         2.411823         0.236332         1.053989
 H         3.955543        -2.542162         1.134973
 H         5.068419        -1.934362        -0.139399
 H         4.874379        -1.169551         1.407234
 H        -0.477745        -0.862215         0.611427
 H        -0.349990         1.038157         0.235922
 H        -0.468490        -0.189671        -1.131787
 H         1.988563         0.842303        -2.045065
 H         1.929684         2.044791        -0.690643
 H         4.617420         2.132544         0.190038
 H         2.394033         0.749555         2.068076
