19
Iteration:  3522charge 0 multiplicity 1
 C         4.279264        -1.797734         0.697844
 C         3.220735        -0.781465         0.355958
 O         1.983669        -1.329535        -0.301187
 C         1.361484         0.066326        -0.117015
 C        -0.165862        -0.078385        -0.141530
 C         2.289307         1.064309        -1.019204
 C         3.408163         0.635707        -0.071396
 O         4.613924         1.206917        -0.080709
 C         2.419004         0.225118         1.070050
 H         4.191223        -2.663214         1.365971
 H         4.760586        -2.042601        -0.260062
 H         4.989762        -1.133951         1.197361
 H        -0.510153        -0.940740         0.507247
 H        -0.627333         0.840273         0.195055
 H        -0.601443        -0.235218        -1.266607
 H         2.382677         1.017095        -2.106178
 H         2.024565         2.122985        -0.875247
 H         4.673679         2.017252         0.405890
 H         2.140444         0.531459         2.109963
