19
Iteration:  3751
 C         4.395561        -1.738857         0.700702
 C         3.085208        -0.949823         0.379216
 O         1.972452        -1.405340        -0.421808
 C         1.335001         0.100341        -0.108168
 C        -0.137802         0.007348        -0.079640
 C         2.179032         0.963687        -1.042761
 C         3.402340         0.639551        -0.098292
 O         4.667754         1.312958        -0.006080
 C         2.451047         0.288652         1.050246
 H         4.142748        -2.517165         1.495584
 H         4.811998        -2.312254        -0.181591
 H         5.165557        -1.058845         0.975978
 H        -0.350314        -0.447248         0.847681
 H        -0.623238         0.924782        -0.173262
 H        -0.367722        -0.586499        -1.008302
 H         2.267416         0.679007        -2.113256
 H         2.015216         2.052314        -0.880234
 H         4.654364         2.069017         0.612229
 H         2.243562         0.504063         2.111668
