19
Iteration:  2892charge 0 multiplicity 1
 C         4.158413        -1.748492         0.776720
 C         3.185780        -0.785984         0.227709
 O         2.048610        -1.247076        -0.567196
 C         1.397955         0.062061        -0.060109
 C        -0.059084        -0.090467         0.002816
 C         2.263751         0.999053        -0.922336
 C         3.408189         0.623083        -0.069568
 O         4.622075         1.219904        -0.072225
 C         2.339385         0.174074         1.094917
 H         3.806318        -2.687976         1.213813
 H         4.827675        -2.025221        -0.074211
 H         4.791974        -1.178416         1.578614
 H        -0.373113        -0.876254         0.795745
 H        -0.562904         0.952380         0.232709
 H        -0.403139        -0.540852        -0.896885
 H         2.366712         0.819964        -2.038511
 H         2.008401         2.061807        -0.806382
 H         4.603562         2.167446        -0.041820
 H         2.600940         0.503550         2.115919
