19
Iteration:   118
 C         4.167194        -1.963247         0.696273
 C         3.259606        -0.852170         0.258998
 O         2.078721        -1.281483        -0.588974
 C         1.470705         0.020780        -0.132493
 C        -0.046168         0.000210         0.120114
 C         2.217363         1.042689        -1.086433
 C         3.379711         0.657892        -0.048018
 O         4.492230         1.469507         0.146464
 C         2.383324         0.174492         1.035401
 H         3.704040        -2.815032         1.151063
 H         4.703210        -2.338340        -0.281625
 H         4.947075        -1.678068         1.350349
 H        -0.365666        -0.731798         0.904191
 H        -0.345901         1.098191         0.340737
 H        -0.557770        -0.314909        -0.753784
 H         2.326726         0.870024        -2.171453
 H         1.955362         2.040292        -0.791352
 H         5.242448         1.132713        -0.347526
 H         2.003354         0.336853         2.011098
