19
Iteration:  1477
 C         4.318756        -1.695473         0.718581
 C         3.137467        -0.827263         0.269534
 O         2.034801        -1.292139        -0.471269
 C         1.364526         0.020790        -0.113878
 C        -0.148723        -0.031187        -0.047939
 C         2.260676         1.055373        -0.983762
 C         3.350157         0.663615        -0.017063
 O         4.612848         1.132408        -0.020080
 C         2.413652         0.191402         1.039237
 H         3.805151        -2.657241         1.057977
 H         5.007778        -1.976958        -0.098238
 H         5.005627        -1.184007         1.423806
 H        -0.343001        -0.900259         0.584953
 H        -0.470871         0.749833         0.540678
 H        -0.600795         0.068526        -1.015952
 H         2.471719         0.922799        -2.085762
 H         2.052383         2.058022        -0.754361
 H         4.606970         2.105123         0.201064
 H         2.471816         0.399688         2.084123
