19
Iteration:   492charge 0 multiplicity 1
 C         4.158456        -1.792136         0.771825
 C         3.162206        -0.809677         0.212612
 O         2.092121        -1.339591        -0.582147
 C         1.421127        -0.020123        -0.157714
 C        -0.028550        -0.051206        -0.010924
 C         2.055018         1.126509        -0.859398
 C         3.345531         0.686013        -0.113118
 O         4.701377         1.234692         0.027782
 C         2.520650         0.169909         1.067237
 H         3.524214        -2.447689         1.195660
 H         4.707730        -2.246333        -0.063939
 H         4.844626        -1.319411         1.498450
 H        -0.226046        -0.988225         0.476001
 H        -0.396602         0.821588         0.401959
 H        -0.561800        -0.152909        -1.017189
 H         1.955299         1.028005        -1.914387
 H         1.504753         2.078251        -0.550538
 H         4.717180         2.187859         0.246386
 H         2.361975         0.563944         2.120293
