19
Iteration:   707
 C         4.299360        -1.850706         0.644902
 C         3.174378        -0.835258         0.290253
 O         2.027469        -1.272822        -0.499838
 C         1.407154         0.018813        -0.059696
 C        -0.148076        -0.016529        -0.046732
 C         2.155911         0.940396        -0.980852
 C         3.436688         0.657709        -0.034211
 O         4.661225         1.367066         0.009953
 C         2.403321         0.175804         1.091076
 H         3.946155        -2.741564         0.968393
 H         4.923897        -2.035308        -0.236431
 H         4.929565        -1.351099         1.403899
 H        -0.537348        -0.981725         0.199390
 H        -0.553386         0.699412         0.648771
 H        -0.599847         0.460758        -0.952402
 H         2.237422         0.538084        -1.991166
 H         1.958353         1.997469        -0.929742
 H         4.459067         2.324021         0.180303
 H         2.207384         0.064287         2.147049
