19
Iteration:  1385charge 0 multiplicity 1
 C         4.209620        -1.876726         0.642294
 C         3.157458        -0.883772         0.313580
 O         2.065464        -1.329739        -0.439263
 C         1.409322        -0.001277        -0.119693
 C        -0.069310        -0.010553        -0.071458
 C         2.230402         1.056415        -0.965066
 C         3.370030         0.645335        -0.085508
 O         4.587062         1.403783        -0.004157
 C         2.418145         0.180232         1.070912
 H         3.877136        -2.645856         1.318134
 H         4.491465        -2.429584        -0.256343
 H         5.138132        -1.359515         0.820615
 H        -0.227552        -0.308907         0.976698
 H        -0.447113         1.112644        -0.147922
 H        -0.480666        -0.481809        -0.961247
 H         2.280623         0.810263        -2.004109
 H         1.887848         2.106283        -0.655286
 H         4.648675         1.817339         0.862633
 H         2.413397         0.442617         2.173412
