19
Iteration:  4341
 C         4.258075        -1.855819         0.733257
 C         3.247599        -0.754205         0.311073
 O         2.115433        -1.272419        -0.438909
 C         1.380780         0.011712        -0.203293
 C        -0.154885        -0.055413        -0.103379
 C         2.169628         1.021018        -0.977225
 C         3.308714         0.728235         0.033830
 O         4.617611         1.219245        -0.060297
 C         2.446685         0.210082         1.116136
 H         3.865208        -2.284723         1.665864
 H         4.551268        -2.563801         0.004952
 H         5.248972        -1.257560         0.916608
 H        -0.314269        -0.563661         0.864756
 H        -0.511194         1.018114         0.004051
 H        -0.657660        -0.620156        -0.843954
 H         2.475816         0.846749        -2.014040
 H         1.781680         2.016526        -0.756069
 H         4.616532         2.131581        -0.441946
 H         2.070546         0.024782         2.118351
