19
Iteration:  4403charge 0 multiplicity 1
 C         4.389335        -1.772608         0.644485
 C         3.295919        -0.825308         0.323330
 O         1.918338        -1.403802        -0.287892
 C         1.407090        -0.029178        -0.106651
 C        -0.132030         0.014112        -0.082929
 C         2.198656         1.001412        -1.160662
 C         3.304326         0.721715        -0.176699
 O         4.592454         1.259971         0.093765
 C         2.470966         0.268007         1.093088
 H         4.050984        -2.443340         1.388145
 H         4.566899        -2.301847        -0.309500
 H         5.277755        -1.373704         1.096446
 H        -0.542450        -0.868356         0.251160
 H        -0.728468         0.753836         0.440151
 H        -0.404441         0.177439        -1.196484
 H         2.412809         0.709178        -2.235324
 H         1.973240         2.066653        -1.162500
 H         4.413052         1.715081         0.954531
 H         2.326724         0.887540         1.934978
