19
Iteration:  2294
 C         4.328632        -1.711908         0.644628
 C         3.131691        -0.828610         0.362950
 O         2.014404        -1.368346        -0.415120
 C         1.426667         0.034749        -0.097521
 C        -0.115261         0.012220        -0.085926
 C         2.199577         1.008834        -0.999008
 C         3.387121         0.611936        -0.121463
 O         4.639374         1.146447         0.000080
 C         2.367433         0.289869         1.094679
 H         4.096170        -2.771177         1.031994
 H         4.958528        -1.886099        -0.282228
 H         4.906049        -1.162686         1.373302
 H        -0.515459        -0.646070         0.701364
 H        -0.493901         1.005045         0.289322
 H        -0.493532        -0.046334        -1.043047
 H         2.119462         0.865613        -2.110030
 H         2.074676         2.079851        -0.771649
 H         4.525061         2.122165         0.175887
 H         2.382709         0.537367         2.152965
