19
Iteration:  2954
 C         4.183124        -1.841427         0.708668
 C         3.235452        -0.810841         0.288934
 O         2.031378        -1.236766        -0.389707
 C         1.419756         0.060337        -0.025804
 C        -0.060712        -0.014233        -0.076042
 C         2.167332         0.915684        -1.029405
 C         3.406432         0.650906        -0.204229
 O         4.583244         1.272016         0.067888
 C         2.475923         0.201353         1.029362
 H         3.882055        -2.597408         1.416112
 H         4.559408        -2.253589        -0.229367
 H         5.041091        -1.294492         1.111830
 H        -0.320846        -0.910718         0.499842
 H        -0.541591         0.809479         0.305114
 H        -0.396730         0.010449        -1.156997
 H         2.102873         0.675768        -2.117170
 H         1.771297         1.956191        -0.865494
 H         4.315694         2.152250         0.297504
 H         2.559191         0.510244         2.050090
