19
Iteration:  3091charge 0 multiplicity 1
 C         4.145468        -1.943753         0.791658
 C         3.215424        -0.793362         0.359236
 O         2.221226        -1.210425        -0.476160
 C         1.413393         0.008524        -0.140172
 C        -0.078407        -0.011035         0.028453
 C         2.179494         0.991356        -0.998942
 C         3.331156         0.740869        -0.087104
 O         4.619580         1.246807        -0.124344
 C         2.365931         0.220264         1.031777
 H         3.417881        -2.648757         1.298854
 H         4.784320        -2.447095         0.006056
 H         4.806978        -1.647750         1.567079
 H        -0.322756        -0.860483         0.645255
 H        -0.661393         0.861750         0.542891
 H        -0.459978        -0.197557        -0.933655
 H         2.210929         0.708093        -2.115111
 H         1.849571         2.059739        -0.788092
 H         4.666453         2.247070        -0.035084
 H         2.126939         0.356466         2.050486
