19
Iteration:  2995
 C         4.314196        -1.701763         0.511032
 C         3.147366        -0.831239         0.450385
 O         2.034699        -1.344678        -0.317745
 C         1.402469        -0.051005        -0.156470
 C        -0.080540         0.098132        -0.065608
 C         2.308448         0.941703        -1.060273
 C         3.375884         0.622618         0.024336
 O         4.627675         1.243475         0.012535
 C         2.260471         0.228693         1.023302
 H         4.101706        -2.475229         1.285756
 H         4.359872        -2.240231        -0.471143
 H         5.257592        -1.267083         0.640646
 H        -0.448707        -0.543526         0.719360
 H        -0.468917         1.113776         0.255264
 H        -0.555923        -0.301026        -1.066478
 H         2.362627         0.599522        -2.027949
 H         1.955441         1.964338        -0.938612
 H         4.605964         2.227446         0.179393
 H         2.224648         0.414037         2.051906
