19
Iteration:  3225charge 0 multiplicity 1
 C         4.252980        -1.786097         0.719157
 C         3.185602        -0.825541         0.324661
 O         2.052157        -1.294695        -0.401782
 C         1.388079         0.069979        -0.077235
 C        -0.140535        -0.049208        -0.087990
 C         2.230250         1.003431        -1.008954
 C         3.397760         0.564404        -0.148699
 O         4.645927         1.229878         0.037963
 C         2.392260         0.304189         1.099655
 H         3.847193        -2.610703         1.291536
 H         4.506671        -2.293800        -0.253048
 H         5.240307        -1.320080         1.065868
 H        -0.687012        -0.706898         0.594800
 H        -0.667669         0.881084        -0.169630
 H        -0.286449        -0.599977        -1.035010
 H         2.269069         0.931568        -2.124829
 H         1.695217         1.955167        -0.643765
 H         4.608715         2.147104        -0.364366
 H         2.562376         0.840565         2.078064
