19
Iteration:  4849charge 0 multiplicity 1
 C         4.289378        -1.860212         0.780059
 C         3.188230        -0.906967         0.200123
 O         2.055183        -1.260959        -0.516530
 C         1.440991        -0.028665        -0.102713
 C        -0.138506         0.036697         0.087101
 C         2.199285         1.016773        -0.995719
 C         3.412098         0.626838        -0.088540
 O         4.521042         1.393319         0.014203
 C         2.408093         0.221724         1.014857
 H         3.839837        -2.819957         1.045152
 H         4.936882        -2.013617        -0.155899
 H         4.846973        -1.442742         1.683196
 H        -0.439068        -0.687795         0.782404
 H        -0.567751         1.014248         0.254905
 H        -0.345075        -0.334792        -0.959597
 H         2.253207         1.043215        -2.129730
 H         1.841006         2.012170        -0.616102
 H         5.336361         0.823875        -0.142692
 H         2.210108         0.584524         1.987953
