19
Iteration:  2589
 C         4.254724        -1.864678         0.775861
 C         3.164750        -0.788346         0.198156
 O         1.898344        -1.342662        -0.433561
 C         1.376656         0.072476        -0.150900
 C        -0.085294        -0.095397        -0.032660
 C         2.102161         1.065811        -0.950491
 C         3.409308         0.689854        -0.145686
 O         4.685877         1.235449         0.066743
 C         2.572976         0.269976         0.992193
 H         3.958187        -2.217424         1.764534
 H         4.481896        -2.646930         0.076206
 H         5.186400        -1.210296         0.887807
 H        -0.327630        -1.053313         0.476372
 H        -0.575952         0.864110         0.351268
 H        -0.262807        -0.233829        -1.079223
 H         2.274949         0.808780        -2.030573
 H         1.929035         2.166937        -0.725607
 H         4.642982         2.156204         0.282470
 H         2.529585         0.446068         2.082208
