19
Iteration:  3746
 C         4.387760        -1.748089         0.702548
 C         3.111336        -0.946551         0.401812
 O         1.971793        -1.386085        -0.428531
 C         1.409853         0.070439        -0.154125
 C        -0.131889         0.022265        -0.115044
 C         2.194227         0.986101        -1.020998
 C         3.341672         0.651800        -0.093541
 O         4.661190         1.282128        -0.016148
 C         2.442838         0.272873         1.069694
 H         4.283109        -2.476975         1.478664
 H         4.707006        -2.212962        -0.213170
 H         5.170460        -1.016588         1.077383
 H        -0.436689        -0.481457         0.872498
 H        -0.813976         0.968142        -0.006907
 H        -0.551823        -0.633928        -0.868573
 H         2.270345         0.611285        -2.048484
 H         1.841188         2.007716        -0.828824
 H         4.673521         2.087275         0.521482
 H         2.389973         0.662962         2.099534
