19
Iteration:   140
 C         4.193301        -1.887406         0.714394
 C         3.073683        -0.991955         0.309210
 O         1.970556        -1.283463        -0.533094
 C         1.407889         0.087727        -0.222270
 C        -0.045093        -0.121919         0.038805
 C         2.252000         1.150372        -0.942875
 C         3.435288         0.662602        -0.116676
 O         4.540849         1.443641         0.170358
 C         2.526875         0.202900         0.921607
 H         3.748719        -2.695586         1.273355
 H         4.951934        -2.389441        -0.049408
 H         4.813384        -1.478997         1.459048
 H        -0.069910        -1.009725         0.742045
 H        -0.429743         0.854931         0.568139
 H        -0.587764        -0.475462        -0.801480
 H         2.413647         0.984988        -2.018292
 H         1.875860         2.110508        -0.636368
 H         5.150390         1.318723        -0.611063
 H         2.546102         0.563695         1.907328
