19
Iteration:  1190
 C         4.177596        -1.859587         0.659879
 C         3.099519        -0.829769         0.267520
 O         2.022519        -1.280984        -0.557568
 C         1.451669         0.058367        -0.185022
 C        -0.018583        -0.086164         0.063818
 C         2.278017         1.008588        -1.010961
 C         3.361236         0.661795        -0.023991
 O         4.641733         1.349508         0.051778
 C         2.379885         0.205330         1.065953
 H         3.804490        -2.566625         1.493275
 H         4.492549        -2.374212        -0.270313
 H         5.122032        -1.345010         0.890187
 H        -0.115287        -0.392597         1.090557
 H        -0.613427         0.845449        -0.032130
 H        -0.333932        -0.929152        -0.482641
 H         2.412306         0.818995        -2.037068
 H         1.854531         2.068411        -0.900989
 H         4.658149         2.012007         0.744943
 H         2.070628         0.431078         1.999561
