19
Iteration:  1937charge 0 multiplicity 1
 C         4.238282        -1.747027         0.590429
 C         3.187274        -0.806917         0.304108
 O         2.041833        -1.251798        -0.343681
 C         1.381913         0.046404        -0.083709
 C        -0.140016        -0.078561        -0.114744
 C         2.172255         1.010266        -0.994231
 C         3.442765         0.587685        -0.113345
 O         4.662236         1.177473         0.083170
 C         2.443418         0.260796         1.083402
 H         4.045879        -2.616765         1.289089
 H         4.600606        -2.040561        -0.412390
 H         5.101384        -1.310173         1.100776
 H        -0.565457        -0.733301         0.586041
 H        -0.605269         0.894195         0.144134
 H        -0.584591        -0.294884        -1.121684
 H         2.168206         0.914113        -2.109561
 H         1.819025         2.025373        -0.777862
 H         4.458369         2.078568        -0.282930
 H         2.322964         0.559822         2.155919
