19
Iteration:  4173
 C         4.318589        -1.814495         0.781809
 C         3.134489        -0.745232         0.369769
 O         2.070361        -1.275214        -0.469829
 C         1.386339         0.003276        -0.258545
 C        -0.124993        -0.109276        -0.074025
 C         2.185274         1.046815        -0.935401
 C         3.363568         0.710988         0.038209
 O         4.678983         1.188802        -0.114056
 C         2.364569         0.250840         1.051917
 H         3.958793        -2.306257         1.730167
 H         4.285868        -2.417441        -0.169693
 H         5.303483        -1.433460         0.908494
 H        -0.170064        -0.741572         0.864705
 H        -0.512694         0.782776         0.344950
 H        -0.617929        -0.624189        -0.897977
 H         2.494956         0.994085        -2.033331
 H         1.894762         2.107648        -0.780095
 H         4.607339         2.174292        -0.028945
 H         1.966376         0.295010         2.169752
