19
Iteration:  1424
 C         4.294887        -1.797515         0.525092
 C         3.194079        -0.788281         0.255903
 O         1.999783        -1.254370        -0.361517
 C         1.383478        -0.061342        -0.007185
 C        -0.122002        -0.010621        -0.173437
 C         2.208569         1.061667        -0.991754
 C         3.333423         0.646555        -0.053198
 O         4.625809         1.153971         0.093952
 C         2.462425         0.258036         1.125374
 H         4.001823        -2.505806         1.366282
 H         4.745209        -2.142088        -0.470523
 H         5.102276        -1.155230         0.988105
 H        -0.538200        -0.572573         0.703384
 H        -0.628889         0.870877        -0.064234
 H        -0.392724        -0.637347        -1.125381
 H         2.392235         0.731266        -2.074000
 H         1.968366         2.075762        -1.035056
 H         4.486260         2.139086         0.186648
 H         2.525286         0.659097         2.102395
