19
Iteration:  2437
 C         4.245629        -1.745352         0.689590
 C         3.151100        -0.793823         0.348009
 O         1.988216        -1.327355        -0.420584
 C         1.369796         0.010193        -0.146347
 C        -0.059521        -0.015861        -0.049437
 C         2.215547         1.032113        -0.995658
 C         3.412681         0.626582        -0.047109
 O         4.722753         1.230415        -0.096326
 C         2.346631         0.181957         1.118938
 H         3.830226        -2.641084         1.181030
 H         4.650113        -2.042946        -0.295445
 H         5.053628        -1.289189         1.331287
 H        -0.409615        -0.858131         0.659199
 H        -0.510041         0.975046         0.363400
 H        -0.484089        -0.166623        -1.063651
 H         2.414573         0.967072        -2.063569
 H         1.850547         2.019155        -0.788639
 H         4.520390         2.137398         0.191339
 H         2.260494         0.458641         2.194241
