19
Iteration:  2361charge 0 multiplicity 1
 C         4.238843        -1.895475         0.658942
 C         3.184414        -0.789991         0.420576
 O         2.032211        -1.250732        -0.468851
 C         1.393567        -0.026438        -0.200394
 C        -0.037365        -0.017582        -0.004116
 C         2.358859         1.010692        -1.005063
 C         3.379155         0.680120        -0.015274
 O         4.585349         1.283628        -0.114324
 C         2.286414         0.180846         1.136428
 H         3.892800        -2.532427         1.510561
 H         4.308510        -2.529236        -0.245551
 H         5.136811        -1.281608         0.890400
 H        -0.202047        -0.628777         0.880840
 H        -0.441908         0.988537         0.321224
 H        -0.691515        -0.342923        -0.758522
 H         2.378321         0.848458        -2.107543
 H         2.005909         2.025220        -0.879832
 H         4.607416         2.210914         0.156299
 H         2.210572         0.571004         2.121931
