19
Iteration:  3021
 C         4.335409        -1.715597         0.602874
 C         3.179819        -0.859576         0.358957
 O         2.058911        -1.275962        -0.413897
 C         1.397208        -0.043658        -0.035743
 C        -0.113184         0.070787        -0.124663
 C         2.218088         0.963510        -1.035619
 C         3.308358         0.699125        -0.032700
 O         4.574672         1.083941         0.030582
 C         2.434790         0.285682         1.060500
 H         4.227466        -2.454548         1.378218
 H         4.738488        -2.129985        -0.302584
 H         5.177696        -1.000851         0.929671
 H        -0.578877        -0.413935         0.801212
 H        -0.538062         1.057574        -0.108784
 H        -0.510523        -0.446654        -1.085289
 H         2.206178         0.585663        -2.121779
 H         1.676477         1.927944        -0.917784
 H         4.749716         2.004284         0.381921
 H         2.319125         0.694310         2.115899
