19
Iteration:  2845
 C         4.289022        -1.709574         0.507960
 C         3.167470        -0.806214         0.306786
 O         1.966641        -1.380441        -0.289684
 C         1.440357        -0.017515        -0.113359
 C        -0.076362         0.065803        -0.117007
 C         2.236687         0.943090        -1.022618
 C         3.319958         0.694843        -0.024797
 O         4.662857         1.224890         0.062599
 C         2.442209         0.233277         1.082053
 H         3.857980        -2.578253         1.085993
 H         4.699933        -2.129019        -0.427036
 H         5.048241        -1.327759         1.192963
 H        -0.492675        -0.635558         0.621775
 H        -0.441154         1.025265         0.010579
 H        -0.492725        -0.462045        -1.049491
 H         2.436035         0.729416        -2.138235
 H         1.665654         1.936795        -1.006888
 H         4.495081         2.151391         0.339845
 H         2.054877         0.493729         2.041706
