19
Iteration:  3162charge 0 multiplicity 1
 C         4.330338        -1.727655         0.674211
 C         3.198720        -0.820135         0.343188
 O         2.039657        -1.311153        -0.390902
 C         1.399527        -0.003859        -0.125932
 C        -0.150901         0.056336        -0.080223
 C         2.163271         0.896694        -1.011269
 C         3.373155         0.635083        -0.087540
 O         4.614533         1.175488         0.007919
 C         2.405674         0.276211         1.021821
 H         4.181423        -2.417177         1.499239
 H         4.618481        -2.206362        -0.248341
 H         5.273199        -1.125255         0.939117
 H        -0.625374        -0.445092         0.786955
 H        -0.452275         1.060461        -0.010624
 H        -0.530595        -0.103100        -1.160044
 H         2.423315         0.812758        -2.036771
 H         1.733212         1.830108        -0.750066
 H         4.608021         1.868762         0.726966
 H         2.396188         0.697960         2.026198
