19
Iteration:  4100charge 0 multiplicity 1
 C         4.252285        -1.767080         0.650382
 C         3.186405        -0.836192         0.336308
 O         2.068083        -1.376922        -0.312680
 C         1.393820        -0.052978        -0.119242
 C        -0.125585         0.018066        -0.080797
 C         2.218726         0.985536        -1.027929
 C         3.426603         0.621238        -0.106404
 O         4.618777         1.323116         0.004333
 C         2.422344         0.238082         1.000170
 H         3.773821        -2.574460         1.182352
 H         4.646864        -1.994757        -0.329264
 H         4.973941        -1.265847         1.334303
 H        -0.584919        -0.423015         0.787537
 H        -0.237334         1.086917         0.041153
 H        -0.492753        -0.371265        -1.078616
 H         2.122219         0.829323        -2.084802
 H         1.821298         1.951008        -0.802322
 H         4.379432         2.133969         0.449495
 H         2.051323         0.564960         2.062460
