19
Iteration:  3658
 C         4.200628        -1.780092         0.788063
 C         3.114002        -0.877992         0.346002
 O         2.073706        -1.401780        -0.375567
 C         1.416738         0.094955        -0.161786
 C        -0.064248        -0.041755        -0.053536
 C         2.161648         0.992394        -1.035787
 C         3.402972         0.693130        -0.120345
 O         4.645994         1.308613        -0.069052
 C         2.436420         0.228524         0.996844
 H         3.676020        -2.615888         1.210535
 H         4.761977        -2.166415        -0.062091
 H         5.027076        -1.312239         1.430996
 H        -0.149422        -1.029100         0.439126
 H        -0.563767         0.732858         0.685843
 H        -0.483406         0.132182        -1.033096
 H         2.128833         0.895341        -2.204909
 H         1.927854         2.035050        -0.680857
 H         4.514824         2.071840         0.551278
 H         2.360915         0.596708         2.113916
