19
Iteration:  1397charge 0 multiplicity 1
 C         4.254105        -1.850509         0.585803
 C         3.189042        -0.871304         0.311513
 O         1.969180        -1.367546        -0.379535
 C         1.411731         0.045723        -0.111055
 C        -0.109347         0.050210        -0.144379
 C         2.156424         1.021666        -0.948641
 C         3.446927         0.642760        -0.103509
 O         4.629250         1.366660         0.054640
 C         2.553966         0.206204         1.040276
 H         4.022844        -2.511807         1.433106
 H         4.418401        -2.337321        -0.355823
 H         5.087145        -1.318246         1.083916
 H        -0.549538        -0.651095         0.609577
 H        -0.911436         0.915205        -0.167148
 H        -0.393577        -0.804991        -0.769874
 H         2.124588         0.989426        -2.008522
 H         1.824923         2.115503        -0.736154
 H         4.442329         1.914894         0.864384
 H         2.263633         0.331480         2.139390
