19
Iteration:  3198
 C         4.343905        -1.662235         0.688404
 C         3.159706        -0.850957         0.338421
 O         1.949736        -1.262545        -0.360179
 C         1.416989         0.040043        -0.109661
 C        -0.097005         0.013253        -0.133819
 C         2.302316         0.964352        -1.017484
 C         3.331023         0.680659         0.014513
 O         4.636729         1.144473        -0.038499
 C         2.391115         0.191666         1.102507
 H         4.286580        -2.572223         1.304141
 H         4.351353        -2.189678        -0.309313
 H         5.252623        -1.137934         0.741424
 H        -0.603857        -0.534758         0.686617
 H        -0.653325         1.003200        -0.315319
 H        -0.405335        -0.734250        -0.915388
 H         2.451261         0.702330        -2.080520
 H         1.696992         1.865546        -0.936787
 H         4.637505         2.147354        -0.036873
 H         2.158450         0.380332         2.112805
