19
Iteration:    29
 C         4.308996        -1.736381         0.547322
 C         3.173833        -0.770872         0.254927
 O         2.023293        -1.270549        -0.444381
 C         1.347412         0.001874        -0.039360
 C        -0.121958        -0.086784        -0.178847
 C         2.183694         1.072920        -0.886358
 C         3.350260         0.736809         0.051219
 O         4.716818         1.146211         0.076474
 C         2.351654         0.225843         1.148155
 H         4.258369        -2.575267         1.248196
 H         4.465127        -2.104415        -0.518254
 H         5.111081        -1.100067         0.984535
 H        -0.496153        -0.968719         0.398359
 H        -0.514039         0.937077         0.137225
 H        -0.480626        -0.336000        -1.191106
 H         2.342751         0.621083        -1.892758
 H         1.755094         2.072810        -1.021934
 H         4.997593         1.314221        -0.818948
 H         2.322708         0.374705         2.268085
