19
Iteration:  2190
 C         4.188393        -1.780366         0.677505
 C         3.098462        -0.805436         0.293167
 O         2.024039        -1.266901        -0.472869
 C         1.457199        -0.084848        -0.119209
 C        -0.053341        -0.017819         0.003476
 C         2.256892         0.934431        -1.055473
 C         3.385423         0.702839        -0.032164
 O         4.678110         1.265524        -0.020650
 C         2.348682         0.253040         1.087894
 H         3.987025        -2.420673         1.468980
 H         4.353451        -2.287360        -0.249256
 H         5.062145        -1.151423         0.933383
 H        -0.325400        -0.684130         0.799931
 H        -0.256865         0.985917         0.350917
 H        -0.744435        -0.333702        -0.814669
 H         2.483671         0.602987        -2.031447
 H         1.847453         1.937231        -1.001932
 H         4.647400         2.056984         0.510319
 H         2.263591         0.456349         2.119881
