19
Iteration:  1260charge 0 multiplicity 1
 C         4.322469        -1.775521         0.533711
 C         3.154648        -0.816845         0.370183
 O         2.009139        -1.301370        -0.383764
 C         1.410687         0.006694        -0.117755
 C        -0.150187         0.037033        -0.146407
 C         2.362169         1.053889        -0.960356
 C         3.296836         0.674240         0.058565
 O         4.586485         1.201713        -0.074118
 C         2.375363         0.128426         1.194753
 H         4.158580        -2.682337         1.070534
 H         4.782643        -1.843010        -0.439140
 H         4.997034        -1.125123         1.134374
 H        -0.381090        -0.890934         0.416567
 H        -0.409108         0.942043         0.345439
 H        -0.471781        -0.222297        -1.195994
 H         2.595932         0.846794        -2.063132
 H         1.938150         2.022468        -0.881227
 H         4.716759         2.144529        -0.075917
 H         2.006109         0.266099         2.285443
