19
Iteration:  1324
 C         4.255155        -1.822661         0.733452
 C         3.194618        -0.849059         0.183125
 O         1.930695        -1.310067        -0.475673
 C         1.420488        -0.022536        -0.103972
 C        -0.095468        -0.052980        -0.011540
 C         2.240173         1.047069        -0.937458
 C         3.416458         0.698779        -0.159091
 O         4.633065         1.269934         0.060839
 C         2.456021         0.269533         0.973217
 H         3.975534        -2.723377         1.418609
 H         4.785640        -2.322110        -0.089023
 H         4.905585        -1.163442         1.426693
 H        -0.334745        -1.096223         0.203475
 H        -0.528181         0.589080         0.741327
 H        -0.787589         0.022284        -0.886954
 H         2.228524         1.059313        -2.078755
 H         1.916827         2.034172        -0.587595
 H         4.381999         1.886121         0.763836
 H         2.519606         0.701460         2.040151
