19
Iteration:  4549
 C         4.241070        -1.812911         0.527223
 C         3.152422        -0.814709         0.374217
 O         2.042546        -1.321866        -0.364596
 C         1.335577        -0.035020        -0.169368
 C        -0.078394        -0.034810         0.001362
 C         2.255751         0.858454        -1.063277
 C         3.394111         0.675310        -0.092908
 O         4.606147         1.426347         0.080028
 C         2.351644         0.303196         1.047349
 H         4.080553        -2.578214         1.334829
 H         4.486853        -2.247479        -0.382576
 H         5.122904        -1.182569         0.839401
 H        -0.577647        -0.669202         0.841830
 H        -0.200849         1.038801         0.273352
 H        -0.502011        -0.205350        -0.926927
 H         2.551080         0.766457        -2.128243
 H         2.042953         1.929416        -0.778218
 H         5.380004         0.909715         0.330230
 H         2.134598         0.463015         2.113502
