19
Iteration:  4705charge 0 multiplicity 1
 C         4.339164        -1.790115         0.613714
 C         3.167579        -0.868414         0.274311
 O         2.020415        -1.271736        -0.385170
 C         1.352401         0.012800        -0.214231
 C        -0.051775         0.041570         0.062780
 C         2.276717         0.862678        -1.012474
 C         3.352002         0.595146        -0.096696
 O         4.539050         1.345382         0.172635
 C         2.403885         0.292676         0.971921
 H         3.967070        -2.649570         1.211961
 H         4.787058        -2.169055        -0.342650
 H         4.996005        -1.227351         1.202994
 H        -0.178809        -0.341781         1.033367
 H        -0.451685         1.022657        -0.144091
 H        -0.618891        -0.591153        -0.676818
 H         2.140086         0.685109        -2.124059
 H         1.995903         1.914749        -0.807205
 H         5.097510         1.358319        -0.657738
 H         1.962803         0.630703         1.979177
