19
Iteration:  3656charge 0 multiplicity 1
 C         4.195760        -1.777565         0.779919
 C         3.109776        -0.869186         0.364756
 O         2.075538        -1.399753        -0.386183
 C         1.409847         0.067158        -0.174242
 C        -0.061899        -0.038938        -0.046259
 C         2.161287         1.002178        -1.047889
 C         3.419380         0.692815        -0.111256
 O         4.652621         1.317976        -0.066917
 C         2.448744         0.226312         1.010492
 H         3.650087        -2.607575         1.242139
 H         4.768563        -2.185276        -0.053807
 H         4.959565        -1.320129         1.396532
 H        -0.174498        -0.992425         0.468914
 H        -0.499056         0.738906         0.688505
 H        -0.537614         0.148845        -1.108312
 H         1.996145         0.818285        -2.157831
 H         1.838711         2.015434        -0.708141
 H         4.559016         2.025536         0.565993
 H         2.330143         0.594073         2.059962
