19
Iteration:   836charge 0 multiplicity 1
 C         4.195998        -1.883010         0.678721
 C         3.207961        -0.826821         0.221222
 O         2.099003        -1.235444        -0.519111
 C         1.416105         0.023428        -0.095508
 C        -0.122976        -0.095842        -0.081429
 C         2.164863         1.087510        -0.874205
 C         3.373887         0.706971        -0.024572
 O         4.575562         1.297149        -0.047113
 C         2.527073         0.178840         1.124102
 H         3.634289        -2.596149         1.326224
 H         4.646695        -2.358331        -0.203078
 H         5.036592        -1.499628         1.332536
 H        -0.538742        -0.703194         0.690715
 H        -0.589707         0.881715         0.004813
 H        -0.452909        -0.659569        -0.984372
 H         2.271389         0.801583        -1.957289
 H         1.826615         2.106940        -0.705638
 H         4.618555         2.106497         0.471036
 H         2.335506         0.209251         2.155428
