19
Iteration:  2389
 C         4.124993        -1.881280         0.721587
 C         3.198315        -0.810924         0.268716
 O         2.062597        -1.345452        -0.458839
 C         1.416027         0.032652        -0.042230
 C        -0.082087        -0.020008        -0.071617
 C         2.189065         1.008352        -0.936181
 C         3.416041         0.718965        -0.142837
 O         4.653293         1.314751        -0.003629
 C         2.486706         0.210575         1.062301
 H         3.685554        -2.343375         1.640360
 H         4.210850        -2.666519        -0.049203
 H         5.012049        -1.354320         0.972383
 H        -0.435120        -0.809682         0.762632
 H        -0.653005         0.884913         0.189220
 H        -0.443818        -0.328544        -1.076108
 H         1.981280         0.868755        -1.998417
 H         1.787692         2.047877        -0.733919
 H         4.689608         2.250564        -0.334569
 H         2.462291         0.404819         2.166712
