19
Iteration:  2378
 C         4.145129        -1.876920         0.723579
 C         3.148344        -0.855457         0.285615
 O         2.098507        -1.362420        -0.448890
 C         1.410162         0.066690        -0.096685
 C        -0.072961        -0.026325        -0.013548
 C         2.198795         1.058441        -0.965824
 C         3.393822         0.701789        -0.032754
 O         4.646109         1.308480        -0.071099
 C         2.448718         0.263132         1.047894
 H         3.863711        -2.504972         1.597580
 H         4.246347        -2.533509        -0.166571
 H         5.181755        -1.636559         0.853105
 H        -0.462336        -0.843199         0.800422
 H        -0.404687         1.006160         0.190442
 H        -0.445762        -0.401665        -1.013864
 H         2.547352         0.807532        -1.961069
 H         1.781919         2.090136        -0.763135
 H         4.464958         2.234038        -0.198926
 H         1.986297         0.235332         2.059149
