19
Iteration:  3365
 C         4.307428        -1.785254         0.606155
 C         3.142928        -0.899763         0.331539
 O         2.004174        -1.289370        -0.339265
 C         1.360837         0.005415        -0.157381
 C        -0.066380        -0.023719        -0.152361
 C         2.286772         0.993728        -1.007015
 C         3.363168         0.672657         0.026306
 O         4.623982         1.166059        -0.036793
 C         2.296233         0.337304         1.187464
 H         4.375485        -2.553806         1.337901
 H         4.711434        -2.257731        -0.274938
 H         5.105704        -1.020588         0.856647
 H        -0.451868        -0.626575         0.724282
 H        -0.564371         1.067386        -0.278310
 H        -0.351145        -0.674871        -0.954956
 H         2.407386         0.928864        -2.085439
 H         2.128625         2.058499        -0.779020
 H         4.724838         2.142494        -0.177792
 H         2.295938         0.859934         2.097366
