19
Iteration:  1722
 C         4.088826        -1.798882         0.748921
 C         3.157366        -0.788254         0.257467
 O         2.123488        -1.312228        -0.482547
 C         1.404697         0.000433        -0.169064
 C        -0.066926        -0.041062         0.020368
 C         2.301258         0.978461        -0.974131
 C         3.357741         0.668907        -0.029790
 O         4.626595         1.310711        -0.093879
 C         2.406047         0.216867         1.082970
 H         3.638517        -2.687859         1.154575
 H         4.357385        -2.096978        -0.302124
 H         4.853843        -1.436021         1.462526
 H        -0.192481        -0.795525         0.754297
 H        -0.343303         0.965776         0.400940
 H        -0.657075        -0.451415        -0.841255
 H         2.352934         0.691954        -1.986806
 H         1.922693         2.024368        -0.865758
 H         4.595629         2.116389         0.448217
 H         2.418686         0.421064         2.205814
