19
Iteration:  3527charge 0 multiplicity 1
 C         4.295168        -1.774519         0.645089
 C         3.209205        -0.858027         0.327560
 O         2.008094        -1.345215        -0.303766
 C         1.381434         0.109775        -0.109449
 C        -0.172474        -0.081961        -0.168809
 C         2.267271         1.045780        -1.018005
 C         3.411522         0.639800        -0.014892
 O         4.627802         1.210196        -0.096208
 C         2.340332         0.265478         1.121377
 H         4.098886        -2.586026         1.389508
 H         4.778388        -2.187157        -0.265343
 H         4.910646        -1.085494         1.276098
 H        -0.461293        -0.874166         0.475290
 H        -0.591347         0.896549         0.171214
 H        -0.521470        -0.361820        -1.080149
 H         2.435736         0.918579        -2.132851
 H         1.994228         2.125253        -0.888134
 H         4.794308         2.071915         0.387512
 H         2.326924         0.644190         2.129917
