19
Iteration:  2125
 C         4.303430        -1.788410         0.655874
 C         3.162608        -0.862894         0.253930
 O         1.985698        -1.364872        -0.341339
 C         1.377642         0.054554         0.008381
 C        -0.137396         0.059612        -0.141142
 C         2.170951         1.019824        -1.049745
 C         3.351962         0.658788        -0.096005
 O         4.704133         1.211825         0.042874
 C         2.461407         0.238036         1.057556
 H         4.210473        -2.622081         1.316054
 H         4.719466        -2.007481        -0.352255
 H         5.106232        -1.112829         1.124120
 H        -0.405316        -0.676912         0.616844
 H        -0.616520         1.022626         0.026420
 H        -0.294701        -0.332937        -1.181863
 H         2.052079         0.678302        -2.037279
 H         1.564689         1.923642        -0.900401
 H         4.606034         2.201806         0.231581
 H         2.465145         0.378439         2.128947
