19
Iteration:  2091
 C         4.166954        -1.798043         0.712430
 C         3.112055        -0.819264         0.345764
 O         2.117988        -1.275867        -0.494965
 C         1.425867         0.041755        -0.105932
 C        -0.061791        -0.050599        -0.051875
 C         2.246479         1.004969        -0.926642
 C         3.406365         0.673511         0.022762
 O         4.615014         1.182386        -0.172600
 C         2.363294         0.268762         1.122648
 H         3.737743        -2.728309         1.070506
 H         4.676918        -2.122695        -0.239394
 H         4.948347        -1.250855         1.282870
 H        -0.275777        -0.856069         0.578947
 H        -0.603611         0.840957         0.410571
 H        -0.570017        -0.377720        -1.040661
 H         2.471920         0.885274        -1.971580
 H         1.737299         1.973108        -0.793923
 H         4.533766         2.058231         0.250727
 H         2.439695         0.781268         2.155385
