19
Iteration:  3251charge 0 multiplicity 1
 C         4.167596        -1.900479         0.756104
 C         3.191317        -0.807672         0.238021
 O         2.025696        -1.324203        -0.373450
 C         1.441192        -0.001345        -0.189348
 C        -0.034207        -0.082334        -0.047691
 C         2.175931         1.031521        -1.048622
 C         3.362395         0.731120        -0.080383
 O         4.666466         1.282662        -0.032357
 C         2.430461         0.332133         1.127810
 H         3.439848        -2.532910         1.329102
 H         4.698956        -2.484719        -0.048387
 H         4.924690        -1.398811         1.366497
 H        -0.453877        -0.811393         0.675831
 H        -0.367489         0.929061         0.265336
 H        -0.545503        -0.328776        -1.091400
 H         2.402355         0.656322        -2.042400
 H         1.626381         1.979253        -0.922870
 H         4.700297         2.273529         0.154921
 H         2.419671         0.313418         2.190517
