19
Iteration:  4052charge 0 multiplicity 1
 C         4.351322        -1.726225         0.685697
 C         3.194694        -0.807160         0.355535
 O         2.063586        -1.341446        -0.402228
 C         1.368474         0.000471        -0.099679
 C        -0.160173         0.064421        -0.030398
 C         2.197418         0.890329        -1.108518
 C         3.372584         0.624039        -0.126353
 O         4.648337         1.250947         0.057129
 C         2.348591         0.248928         1.051061
 H         3.918554        -2.657489         1.136544
 H         4.886727        -1.831646        -0.296896
 H         4.875132        -1.210081         1.477479
 H        -0.462445        -0.962412         0.369492
 H        -0.501432         0.846618         0.661601
 H        -0.485108         0.103598        -1.056069
 H         2.372317         0.568195        -2.161029
 H         1.871512         1.953402        -0.977737
 H         4.582563         2.226658        -0.050342
 H         2.209934         0.432265         2.150598
