19
Iteration:  3748
 C         4.395193        -1.743614         0.701983
 C         3.098707        -0.953300         0.395152
 O         1.971373        -1.397261        -0.428464
 C         1.380444         0.085639        -0.137430
 C        -0.136374         0.017426        -0.106422
 C         2.184768         0.978078        -1.028356
 C         3.363570         0.646828        -0.098160
 O         4.665619         1.295210        -0.012132
 C         2.446425         0.284183         1.069527
 H         4.223636        -2.498691         1.491507
 H         4.753715        -2.256694        -0.202838
 H         5.164215        -1.040827         1.033961
 H        -0.400265        -0.460631         0.879101
 H        -0.745692         0.922035        -0.062377
 H        -0.463243        -0.590156        -0.895208
 H         2.275516         0.618972        -2.087196
 H         1.915928         2.025462        -0.835005
 H         4.683104         2.105318         0.572155
 H         2.337400         0.584163         2.053834
