19
Iteration:  3541charge 0 multiplicity 1
 C         4.316557        -1.733456         0.635429
 C         3.106449        -0.804296         0.337247
 O         2.010568        -1.307668        -0.410315
 C         1.361899         0.029689        -0.099100
 C        -0.055122        -0.042740        -0.162920
 C         2.239352         0.928678        -0.930283
 C         3.297319         0.636960         0.016871
 O         4.709571         1.196695        -0.092760
 C         2.377539         0.343832         1.150202
 H         3.944770        -2.550192         1.216430
 H         4.735868        -2.197444        -0.267568
 H         5.259470        -1.241202         1.084773
 H        -0.391550        -0.684934         0.684978
 H        -0.678214         0.868882        -0.141512
 H        -0.291192        -0.457454        -1.156787
 H         2.283292         0.528753        -1.933964
 H         1.886111         1.948838        -0.927381
 H         4.561171         2.031405         0.341163
 H         2.172224         0.786436         2.238383
