19
Iteration:  1733
 C         4.163087        -1.793805         0.659784
 C         3.190224        -0.756695         0.329281
 O         2.084532        -1.280335        -0.498514
 C         1.429143        -0.028052        -0.159598
 C        -0.113062        -0.057723         0.020166
 C         2.268579         0.979794        -0.983101
 C         3.407851         0.679436        -0.027350
 O         4.598799         1.239442        -0.096393
 C         2.381196         0.240477         1.108575
 H         3.563734        -2.354367         1.319983
 H         4.796952        -2.435243        -0.015067
 H         4.992043        -1.303844         1.245355
 H        -0.450225        -0.620481         0.866421
 H        -0.511673         0.982416         0.169180
 H        -0.581309        -0.317028        -0.951763
 H         2.494918         0.760216        -1.999718
 H         1.903723         2.031846        -0.846240
 H         4.651676         1.985285         0.553549
 H         2.217009         0.326720         2.250824
