19
Iteration:  2479
 C         4.398498        -1.668056         0.653021
 C         3.168762        -0.820157         0.324811
 O         1.971336        -1.297891        -0.399908
 C         1.374689         0.064843        -0.069257
 C        -0.103525         0.040429        -0.069169
 C         2.186698         0.966428        -1.088450
 C         3.368575         0.638945        -0.117409
 O         4.636868         1.115647         0.046333
 C         2.422942         0.178459         1.104215
 H         4.062353        -2.720891         0.700758
 H         4.987049        -1.825582        -0.261505
 H         5.076863        -1.340682         1.437535
 H        -0.504017        -0.587235         0.843629
 H        -0.495302         1.093312         0.194971
 H        -0.610129        -0.141477        -0.976830
 H         2.158149         0.527877        -2.084676
 H         1.783452         1.991641        -1.180507
 H         4.499167         1.969923         0.555287
 H         2.243837         0.694357         2.035420
