19
Iteration:  1178
 C         4.170513        -1.837921         0.616464
 C         3.119329        -0.951047         0.319662
 O         2.056675        -1.208504        -0.587858
 C         1.391061         0.013122        -0.199051
 C        -0.038538        -0.136912         0.105416
 C         2.335089         1.004776        -0.947694
 C         3.451145         0.639455         0.055430
 O         4.628110         1.357142         0.000694
 C         2.304901         0.287244         1.001717
 H         3.897954        -2.610253         1.462490
 H         4.364488        -2.572876        -0.238968
 H         4.959339        -1.265392         1.045967
 H        -0.204946        -0.481523         1.115060
 H        -0.539646         0.808589        -0.069545
 H        -0.549704        -0.655856        -0.651329
 H         2.492510         0.785742        -1.961780
 H         1.997604         2.085605        -0.727345
 H         4.371408         2.170407         0.505128
 H         2.187526         0.698603         1.940050
