19
Iteration:  3544
 C         4.305692        -1.729698         0.641842
 C         3.128201        -0.755624         0.366992
 O         1.992134        -1.292346        -0.437101
 C         1.367495         0.004209        -0.084013
 C        -0.044909        -0.035301        -0.150776
 C         2.226754         0.905240        -0.923573
 C         3.310648         0.644083        -0.000796
 O         4.699133         1.180450        -0.081347
 C         2.404091         0.337675         1.148355
 H         4.051477        -2.615239         1.270506
 H         4.628313        -2.125561        -0.345487
 H         5.179061        -1.278049         1.060091
 H        -0.442141        -0.680849         0.686823
 H        -0.596815         0.887834        -0.203563
 H        -0.293332        -0.545111        -1.235655
 H         2.272888         0.549258        -1.944869
 H         1.861169         1.929365        -0.994570
 H         4.532133         2.075085         0.341138
 H         2.104242         0.708987         2.145362
