19
Iteration:  3860charge 0 multiplicity 1
 C         4.328682        -1.720126         0.809586
 C         3.212644        -0.753717         0.249876
 O         1.995247        -1.289842        -0.404949
 C         1.385674        -0.007011        -0.052597
 C        -0.099159        -0.018088        -0.113367
 C         2.099507         1.017382        -1.004578
 C         3.398371         0.638490        -0.116064
 O         4.681043         1.185177        -0.053731
 C         2.407239         0.216191         1.050557
 H         3.872766        -2.629840         1.336515
 H         4.940988        -2.152493        -0.008736
 H         4.948224        -1.301329         1.618075
 H        -0.435345        -1.050727         0.214521
 H        -0.527787         0.700865         0.544040
 H        -0.401851        -0.051999        -1.232808
 H         1.923114         0.643783        -2.084486
 H         1.765862         2.083081        -0.780582
 H         4.662460         2.126260         0.066488
 H         2.369427         0.393116         2.238784
