19
Iteration:  1778charge 0 multiplicity 1
 C         4.321583        -1.653609         0.634229
 C         3.151963        -0.847751         0.195345
 O         1.962304        -1.302320        -0.315920
 C         1.376069        -0.063575        -0.034707
 C        -0.137337        -0.041737        -0.159250
 C         2.241794         1.057024        -0.986538
 C         3.356254         0.585483        -0.090264
 O         4.640208         1.127866         0.078914
 C         2.463275         0.278586         1.060662
 H         4.102352        -2.322112         1.454261
 H         4.606912        -2.229819        -0.306416
 H         5.262504        -0.964970         0.578327
 H        -0.611200        -0.507119         0.730660
 H        -0.387437         1.054544        -0.163063
 H        -0.297436        -0.381250        -1.176208
 H         2.275202         1.082259        -2.034907
 H         2.139745         2.131506        -0.631737
 H         4.332029         2.075880         0.137050
 H         2.381998         0.629067         2.235262
