19
Iteration:   740
 C         4.354595        -1.698203         0.529302
 C         3.222037        -0.791344         0.295189
 O         2.050610        -1.390182        -0.353683
 C         1.433913        -0.068094        -0.193147
 C        -0.093245         0.095946        -0.078820
 C         2.227253         1.054213        -0.983739
 C         3.315171         0.625017        -0.040637
 O         4.533686         1.221429         0.048377
 C         2.361598         0.153854         1.090543
 H         4.036049        -2.459751         1.085013
 H         4.606619        -2.051027        -0.469338
 H         5.236909        -1.297065         1.058344
 H        -0.590925        -0.558555         0.609250
 H        -0.142867         1.020036         0.469810
 H        -0.716967         0.034532        -1.029005
 H         2.454902         0.926866        -2.048166
 H         1.948147         2.044950        -0.684923
 H         4.441484         1.862719         0.782460
 H         2.251775         0.275964         2.143296
