19
Iteration:  4093charge 0 multiplicity 1
 C         4.234806        -1.720219         0.625831
 C         3.152278        -0.769701         0.347555
 O         2.045530        -1.415506        -0.347303
 C         1.414311        -0.058867        -0.145690
 C        -0.084988         0.063911        -0.056604
 C         2.283262         0.910628        -1.040183
 C         3.417835         0.619296        -0.075901
 O         4.585917         1.327782        -0.016691
 C         2.395034         0.250630         1.070812
 H         3.913730        -2.657334         1.090475
 H         4.705817        -2.058585        -0.297543
 H         4.991158        -1.371808         1.384872
 H        -0.534734        -0.646038         0.655432
 H        -0.428364         1.150575         0.040759
 H        -0.581106        -0.299037        -0.944940
 H         2.275984         0.764554        -2.149372
 H         1.905633         1.922861        -0.682773
 H         4.360389         2.175390         0.433176
 H         2.272869         0.434063         2.041690
