19
Iteration:  4040charge 0 multiplicity 1
 C         4.268451        -1.644859         0.734889
 C         3.178171        -0.780493         0.311595
 O         2.038305        -1.414232        -0.400504
 C         1.371243        -0.059029        -0.182050
 C        -0.113313        -0.018308        -0.090528
 C         2.193562         0.981346        -0.977419
 C         3.404291         0.643932        -0.089106
 O         4.634785         1.181844         0.045769
 C         2.433879         0.337480         1.010989
 H         3.885122        -2.632732         1.076700
 H         4.904108        -2.018946        -0.122936
 H         5.145948        -1.343100         1.344440
 H        -0.521789        -0.937097         0.451313
 H        -0.357047         0.850258         0.610923
 H        -0.760867         0.234031        -0.888718
 H         2.101536         0.779380        -2.088952
 H         1.749365         2.036920        -0.842977
 H         4.388678         2.143914        -0.015213
 H         2.593958         0.639417         1.988994
