19
Iteration:  4092
 C         4.233300        -1.718556         0.624803
 C         3.151609        -0.769800         0.350773
 O         2.040557        -1.418111        -0.354341
 C         1.418513        -0.057946        -0.149351
 C        -0.079001         0.068741        -0.051847
 C         2.287688         0.900270        -1.039877
 C         3.409398         0.622912        -0.074536
 O         4.582331         1.329225        -0.018471
 C         2.388672         0.254280         1.078646
 H         3.929173        -2.650841         1.055722
 H         4.723584        -2.059995        -0.266806
 H         5.014242        -1.371030         1.377002
 H        -0.502020        -0.647018         0.630945
 H        -0.460402         1.137507         0.049040
 H        -0.596129        -0.283420        -0.952230
 H         2.319905         0.758373        -2.134023
 H         1.927373         1.909108        -0.700909
 H         4.371611         2.166707         0.417052
 H         2.317990         0.423359         2.083530
