19
Iteration:   272
 C         4.198918        -1.862135         0.607045
 C         3.146863        -0.831731         0.373592
 O         2.111191        -1.304461        -0.481470
 C         1.426999        -0.010259        -0.171157
 C        -0.067983        -0.039707         0.026851
 C         2.225676         1.033923        -1.013384
 C         3.404985         0.659845        -0.048163
 O         4.571058         1.392671         0.016001
 C         2.382910         0.200821         1.062572
 H         3.618122        -2.707196         0.891878
 H         4.389177        -2.246472        -0.496296
 H         5.043532        -1.638452         1.221854
 H        -0.527564        -0.593725         0.869072
 H        -0.439097         1.044057         0.232020
 H        -0.538494        -0.272336        -0.982834
 H         2.342849         0.870923        -2.101931
 H         1.929768         2.093923        -0.879022
 H         4.936959         1.528976         0.933685
 H         2.441849         0.269163         2.165027
