19
Iteration:   494
 C         4.190509        -1.801130         0.779424
 C         3.183234        -0.805376         0.229489
 O         2.086688        -1.354184        -0.585439
 C         1.404328        -0.001281        -0.153026
 C        -0.017422        -0.048495        -0.011276
 C         2.035582         1.146019        -0.865615
 C         3.335227         0.673068        -0.127559
 O         4.702981         1.229400         0.033553
 C         2.518216         0.182122         1.063525
 H         3.516281        -2.542363         1.188408
 H         4.618715        -2.233029        -0.051309
 H         4.813429        -1.353783         1.493936
 H        -0.179260        -1.052594         0.456760
 H        -0.440208         0.878959         0.386947
 H        -0.510405        -0.110817        -1.043957
 H         1.956298         1.017310        -1.944413
 H         1.506241         2.062956        -0.450501
 H         4.690374         2.207228         0.243814
 H         2.339082         0.542184         2.020710
