19
Iteration:  3395charge 0 multiplicity 1
 C         4.228897        -1.786798         0.648530
 C         3.131093        -0.771797         0.318445
 O         2.053595        -1.336741        -0.338285
 C         1.355347        -0.004038        -0.011268
 C        -0.130297        -0.055673        -0.174174
 C         2.150248         1.043568        -1.083364
 C         3.405241         0.696028        -0.100514
 O         4.727294         1.196087         0.002731
 C         2.412587         0.280091         1.152455
 H         3.963462        -2.618312         1.386888
 H         4.587097        -2.184676        -0.341633
 H         5.164455        -1.284640         0.894641
 H        -0.769002        -0.379835         0.636886
 H        -0.592595         0.962719        -0.452484
 H        -0.242967        -0.736471        -1.004438
 H         2.169646         0.588269        -2.091152
 H         2.018816         2.105081        -0.908700
 H         4.841450         2.056729         0.476159
 H         2.460145         0.486359         2.234717
