19
Iteration:  4955charge 0 multiplicity 1
 C         4.215496        -1.874139         0.577888
 C         3.173208        -0.783267         0.329388
 O         1.989773        -1.257673        -0.377071
 C         1.388652         0.046739        -0.075724
 C        -0.122614        -0.077559        -0.142100
 C         2.209774         1.017734        -0.980236
 C         3.366499         0.773453        -0.049710
 O         4.675533         1.346402         0.078768
 C         2.500471         0.207660         1.098467
 H         3.902455        -2.428635         1.504732
 H         4.188718        -2.695174        -0.099330
 H         5.190967        -1.580947         0.769163
 H        -0.209902        -1.070283         0.277500
 H        -0.910724         0.602772         0.221932
 H        -0.386254        -0.426560        -1.241778
 H         2.047011         0.831266        -2.047094
 H         1.814306         1.984254        -0.782143
 H         5.180983         0.792792        -0.603900
 H         2.492165         0.426168         2.146799
