19
Iteration:  3877charge 0 multiplicity 1
 C         4.273101        -1.663536         0.720223
 C         3.170093        -0.830561         0.339460
 O         2.120995        -1.378505        -0.384935
 C         1.410733        -0.034127        -0.136128
 C        -0.188866        -0.013575        -0.086243
 C         2.182681         0.976388        -0.958963
 C         3.339448         0.652659        -0.133410
 O         4.617069         1.153485        -0.053260
 C         2.459049         0.313381         1.059535
 H         3.845860        -2.551103         1.128943
 H         4.906969        -1.899518        -0.135505
 H         4.806268        -1.029871         1.416170
 H        -0.645748        -0.913092         0.341694
 H        -0.338909         1.022421         0.335569
 H        -0.607535         0.181068        -1.029682
 H         2.332558         1.022155        -1.994877
 H         1.819243         1.943467        -0.710088
 H         4.613779         1.973595         0.437404
 H         2.438149         0.594245         2.022708
