19
Iteration:  4787
 C         4.210790        -1.863815         0.645135
 C         3.198739        -0.854136         0.312117
 O         2.077439        -1.232424        -0.374777
 C         1.320650         0.028067        -0.172164
 C        -0.137348        -0.130165        -0.131454
 C         2.195567         1.055294        -1.009975
 C         3.351740         0.602520        -0.047480
 O         4.622181         1.327298         0.026063
 C         2.521784         0.347532         1.201556
 H         4.082246        -2.413041         1.571239
 H         4.363199        -2.542211        -0.144622
 H         5.248591        -1.399651         0.742777
 H        -0.526129        -1.225892         0.098858
 H        -0.652505         0.501049         0.638747
 H        -0.650386         0.048758        -1.059367
 H         2.171825         0.883109        -2.085387
 H         1.821120         2.066928        -0.706430
 H         5.154393         1.194055        -0.824737
 H         2.581623         0.718359         2.241181
