19
Iteration:  3535charge 0 multiplicity 1
 C         4.335710        -1.731797         0.621651
 C         3.113877        -0.905491         0.305667
 O         2.037460        -1.332149        -0.344267
 C         1.383752         0.089315        -0.113555
 C        -0.115539        -0.051921        -0.167480
 C         2.246188         0.992414        -0.980816
 C         3.338058         0.642002         0.031313
 O         4.691234         1.212570        -0.107590
 C         2.312990         0.331825         1.168031
 H         3.804059        -2.509675         1.259398
 H         4.843104        -2.286405        -0.196889
 H         5.085177        -1.201484         1.132165
 H        -0.380110        -0.773198         0.614102
 H        -0.672448         0.862068         0.040971
 H        -0.409789        -0.482634        -1.212280
 H         2.384235         0.582036        -2.009460
 H         1.935982         2.053998        -0.811133
 H         4.702568         2.091956         0.380515
 H         2.398392         0.741517         2.112813
