19
Iteration:  2069charge 0 multiplicity 1
 C         4.193904        -1.854747         0.818576
 C         3.193162        -0.791877         0.313605
 O         2.000670        -1.237609        -0.495956
 C         1.432720         0.024977        -0.101199
 C        -0.060777        -0.113730        -0.005559
 C         2.173598         1.093809        -1.034766
 C         3.427184         0.720932        -0.077410
 O         4.682701         1.214170        -0.080213
 C         2.411591         0.186932         1.062000
 H         3.564556        -2.706037         1.168027
 H         4.684566        -2.254400        -0.110038
 H         4.964793        -1.372900         1.482073
 H        -0.233800        -0.918674         0.623279
 H        -0.412802         0.830628         0.543697
 H        -0.655447        -0.403215        -0.974507
 H         2.037920         0.888779        -2.098587
 H         2.023894         2.150451        -0.795079
 H         4.533787         2.197848        -0.050602
 H         2.040111         0.331827         2.179223
