19
Iteration:   831charge 0 multiplicity 1
 C         4.193630        -1.904358         0.657521
 C         3.173012        -0.822785         0.285280
 O         2.123355        -1.226678        -0.511704
 C         1.383529        -0.005272        -0.141834
 C        -0.112198        -0.104626        -0.093586
 C         2.166886         1.098535        -0.885930
 C         3.360089         0.741092        -0.034164
 O         4.611761         1.295268        -0.052087
 C         2.540293         0.180692         1.120143
 H         3.718129        -2.604005         1.403542
 H         4.565089        -2.356842        -0.274569
 H         4.925299        -1.448716         1.297343
 H        -0.463311        -0.624176         0.864158
 H        -0.624987         0.884337        -0.005554
 H        -0.489059        -0.664056        -0.946488
 H         2.245711         0.797410        -1.919581
 H         1.718677         2.069667        -0.548797
 H         4.630969         2.130419         0.480829
 H         2.287842         0.088727         2.228243
