19
Iteration:   924charge 0 multiplicity 1
 C         4.325960        -1.716758         0.543300
 C         3.106933        -0.852771         0.382332
 O         2.037651        -1.338659        -0.517862
 C         1.368680         0.045330        -0.099370
 C        -0.139248        -0.015016        -0.071199
 C         2.217792         1.027675        -1.022570
 C         3.338924         0.735184        -0.043557
 O         4.643049         1.161290         0.090482
 C         2.465930         0.243706         1.155133
 H         4.196656        -2.606674         1.109873
 H         4.676396        -1.948648        -0.476054
 H         5.014222        -1.121429         1.209483
 H        -0.310750        -1.040530         0.249083
 H        -0.663544         0.597757         0.578289
 H        -0.634055         0.012295        -1.096899
 H         2.425226         0.550912        -1.988644
 H         1.768420         1.986073        -1.012351
 H         4.674142         2.088592         0.315110
 H         2.472949         0.273576         2.280953
