19
Iteration:  1346
 C         4.172909        -1.818054         0.712148
 C         3.135809        -0.862545         0.266638
 O         2.116316        -1.312952        -0.536869
 C         1.355876         0.100481        -0.142017
 C        -0.044791        -0.038492         0.042945
 C         2.212997         1.031409        -1.019870
 C         3.418879         0.675208        -0.057389
 O         4.631813         1.379117        -0.017959
 C         2.400762         0.115000         1.066747
 H         3.805948        -2.667712         1.420937
 H         4.460207        -2.453024        -0.151539
 H         5.023566        -1.276627         1.266654
 H        -0.439644        -0.882643         0.590984
 H        -0.386989         0.862646         0.519331
 H        -0.779156        -0.042582        -0.793115
 H         2.260789         0.605032        -2.078479
 H         1.872152         2.064683        -0.989006
 H         4.695111         1.696822         0.913560
 H         2.424973         0.169564         2.193074
