19
Iteration:   305charge 0 multiplicity 1
 C         4.205621        -1.893629         0.754847
 C         3.173337        -0.874861         0.213183
 O         1.940468        -1.257973        -0.559168
 C         1.463704         0.078523        -0.135217
 C        -0.038241        -0.125585         0.050730
 C         2.229770         1.097691        -0.974208
 C         3.410006         0.669121        -0.041868
 O         4.602252         1.351193         0.007790
 C         2.453043         0.177232         1.029009
 H         3.605938        -2.633350         1.240818
 H         4.788906        -2.250406        -0.131457
 H         4.933904        -1.508051         1.460453
 H        -0.285866        -1.001587         0.676378
 H        -0.601190         0.809647         0.390051
 H        -0.503694        -0.358508        -0.986484
 H         2.387740         0.936565        -2.054850
 H         1.944820         2.153831        -0.743955
 H         4.451981         2.155308         0.533023
 H         2.557911         0.231201         2.128647
