19
Iteration:  4417
 C         4.308235        -1.710272         0.637961
 C         3.137611        -0.781741         0.281530
 O         1.990180        -1.388774        -0.320551
 C         1.425248        -0.021424        -0.137821
 C        -0.048363         0.027245        -0.076498
 C         2.209130         0.881852        -1.082105
 C         3.354109         0.672907        -0.074898
 O         4.606078         1.255442         0.080334
 C         2.423799         0.332883         0.985445
 H         3.923681        -2.565952         1.145230
 H         4.692668        -2.104544        -0.228080
 H         5.153620        -1.196084         1.184476
 H        -0.283650        -0.935918         0.350138
 H        -0.322724         0.842640         0.621507
 H        -0.509931         0.125264        -1.021324
 H         2.200278         0.526716        -2.131102
 H         1.645424         1.829051        -0.971769
 H         4.669683         1.791144         0.862882
 H         2.303887         0.565851         2.085368
