19
Iteration:  1994
 C         4.297660        -1.735972         0.627372
 C         3.143661        -0.827209         0.414131
 O         2.050943        -1.394265        -0.441883
 C         1.386990        -0.021940        -0.116889
 C        -0.157718         0.065506        -0.036436
 C         2.301644         0.980818        -1.028928
 C         3.373425         0.632596        -0.054370
 O         4.622849         1.279239        -0.043103
 C         2.359674         0.223102         1.125366
 H         4.053288        -2.613576         1.145388
 H         4.251947        -2.086271        -0.419768
 H         5.264918        -1.169737         0.672825
 H        -0.583546        -0.444832         0.711268
 H        -0.352458         1.156772         0.057530
 H        -0.460201        -0.257142        -1.058259
 H         2.595720         0.722381        -2.027141
 H         1.805994         1.982739        -1.083928
 H         4.540177         1.789876         0.766417
 H         2.370810         0.514884         2.292025
