19
Iteration:  4860charge 0 multiplicity 1
 C         4.295173        -1.827283         0.702261
 C         3.202915        -0.905566         0.300025
 O         2.034937        -1.351877        -0.522815
 C         1.402214         0.070170        -0.124762
 C        -0.061690         0.063333         0.059605
 C         2.155177         1.039767        -1.037396
 C         3.368406         0.615817        -0.140042
 O         4.513444         1.398776         0.058145
 C         2.440020         0.139596         1.045849
 H         4.049147        -2.797442         1.117281
 H         5.283989        -1.950985         0.129351
 H         4.614405        -1.206635         1.615754
 H        -0.484705        -0.366720         0.923336
 H        -0.297163         1.123476         0.116342
 H        -0.688348        -0.338387        -0.803025
 H         2.207537         0.887473        -2.157522
 H         1.981119         2.115757        -0.775948
 H         5.312003         0.870848        -0.047505
 H         2.344927         0.130082         2.101811
