19
Iteration:  1808charge 0 multiplicity 1
 C         4.292484        -1.765154         0.577971
 C         3.098370        -0.846557         0.420869
 O         2.074380        -1.298336        -0.391115
 C         1.407554         0.032313        -0.171133
 C        -0.108110         0.045911        -0.123772
 C         2.139796         0.893266        -1.050894
 C         3.350806         0.742336         0.041346
 O         4.691165         1.204141        -0.002918
 C         2.445355         0.246217         1.174351
 H         4.195516        -2.671428         1.116549
 H         4.399783        -2.264891        -0.406780
 H         5.268885        -1.270460         0.643154
 H        -0.387547        -0.684294         0.623736
 H        -0.646318         1.009543         0.107447
 H        -0.572041        -0.332831        -1.145956
 H         2.288895         0.515630        -2.077253
 H         1.849972         1.983396        -1.005278
 H         4.490736         2.109540         0.220817
 H         2.084664         0.495695         2.269121
