19
Iteration:  1194
 C         4.174301        -1.858837         0.667129
 C         3.125148        -0.811140         0.277893
 O         2.014718        -1.299962        -0.542961
 C         1.463057         0.045203        -0.169198
 C        -0.021923        -0.075990         0.049456
 C         2.248468         1.035569        -1.033382
 C         3.370947         0.702645        -0.056715
 O         4.627062         1.324845         0.065944
 C         2.401915         0.178521         1.068824
 H         3.770064        -2.513190         1.421149
 H         4.541223        -2.328298        -0.223776
 H         5.172861        -1.382921         0.847302
 H        -0.159070        -0.298612         1.136936
 H        -0.707403         0.800967        -0.029276
 H        -0.422736        -0.947634        -0.583191
 H         2.384326         0.847019        -2.154542
 H         1.972739         2.092412        -0.977668
 H         4.666165         1.969457         0.813149
 H         2.102432         0.337749         2.184038
