19
Iteration:   422
 C         4.297611        -1.796791         0.495649
 C         3.249919        -0.706052         0.294122
 O         2.017066        -1.430211        -0.379407
 C         1.392700        -0.030301        -0.084294
 C        -0.095800        -0.005907        -0.100072
 C         2.211009         1.044433        -0.966279
 C         3.352242         0.693586        -0.123723
 O         4.591319         1.210482         0.183170
 C         2.449857         0.270743         1.030564
 H         3.657178        -2.446141         1.205100
 H         4.530617        -2.251903        -0.540774
 H         5.213760        -1.408045         0.964723
 H        -0.483410        -0.633831         0.718311
 H        -0.317080         1.103999         0.050851
 H        -0.560426        -0.326654        -0.976214
 H         2.190885         0.784417        -2.071487
 H         1.721948         1.999595        -0.789366
 H         4.469510         2.156462         0.444866
 H         2.288237         0.458316         2.046036
