19
Iteration:  4408charge 0 multiplicity 1
 C         4.367023        -1.727475         0.663032
 C         3.218743        -0.804201         0.271214
 O         1.927547        -1.419024        -0.302821
 C         1.410500        -0.050375        -0.129012
 C        -0.070017         0.058454        -0.078669
 C         2.208679         0.950444        -1.151122
 C         3.339378         0.731711        -0.138468
 O         4.589593         1.250210         0.094826
 C         2.465081         0.294999         1.084974
 H         3.902939        -2.560810         1.303388
 H         4.699483        -2.169891        -0.299091
 H         5.403118        -1.478877         1.062211
 H        -0.483062        -1.004549         0.241364
 H        -0.712266         0.723375         0.546389
 H        -0.441187         0.038628        -1.061337
 H         2.237145         0.642885        -2.192263
 H         1.854705         2.015154        -1.056331
 H         4.494608         1.706272         0.922532
 H         2.228752         0.908321         2.058023
