19
Iteration:  4524charge 0 multiplicity 1
 C         4.243275        -1.886696         0.660717
 C         3.198118        -0.807004         0.369241
 O         2.009447        -1.266800        -0.414984
 C         1.393355         0.047486        -0.120673
 C        -0.057455        -0.085039        -0.047694
 C         2.241079         1.010095        -1.033623
 C         3.315310         0.722343        -0.074765
 O         4.545188         1.381271         0.041374
 C         2.451092         0.209365         1.091749
 H         3.801032        -2.632792         1.294308
 H         4.462276        -2.326057        -0.389748
 H         5.229760        -1.545363         1.117897
 H        -0.361171        -0.674195         0.792131
 H        -0.676698         0.857382        -0.140156
 H        -0.184971        -0.708994        -0.998063
 H         2.427878         0.632564        -2.068749
 H         1.981952         2.070667        -1.003480
 H         5.217657         0.921312        -0.459852
 H         2.533740         0.624976         2.160526
