19
Iteration:   961
 C         4.272376        -1.785037         0.602957
 C         3.203436        -0.829283         0.276059
 O         2.027502        -1.307673        -0.446343
 C         1.422287        -0.002650        -0.030046
 C        -0.072272        -0.047519        -0.171924
 C         2.161360         1.102527        -0.861264
 C         3.391687         0.631784        -0.127275
 O         4.587676         1.224345         0.034134
 C         2.438461         0.244974         1.096645
 H         3.889463        -2.524090         1.353105
 H         4.583666        -2.382627        -0.285041
 H         5.195527        -1.317472         0.895197
 H        -0.395256        -0.590859         0.782736
 H        -0.627812         0.964988        -0.185059
 H        -0.249985        -0.591517        -1.133371
 H         2.160854         1.154010        -1.963305
 H         1.724918         2.108540        -0.547606
 H         4.369569         2.062228         0.475485
 H         2.431511         0.233824         2.237956
