19
Iteration:  1180
 C         4.171684        -1.836281         0.610404
 C         3.119549        -0.945633         0.301379
 O         2.050192        -1.216847        -0.583259
 C         1.385471         0.029888        -0.201900
 C        -0.022178        -0.123430         0.109876
 C         2.331111         1.000306        -0.956547
 C         3.429204         0.636974         0.056320
 O         4.638380         1.362962         0.006416
 C         2.315901         0.279846         1.006957
 H         3.941855        -2.622998         1.478076
 H         4.286107        -2.536668        -0.184553
 H         4.942251        -1.245630         1.113229
 H        -0.145020        -0.512572         1.091413
 H        -0.515046         0.865174        -0.134484
 H        -0.489135        -0.773345        -0.617814
 H         2.491578         0.727960        -1.958929
 H         1.881403         2.050451        -0.701277
 H         4.414905         2.115339         0.562686
 H         2.140364         0.661895         1.910862
