19
Iteration:   706charge 0 multiplicity 1
 C         4.293162        -1.844870         0.642545
 C         3.190645        -0.830259         0.291090
 O         2.022570        -1.270584        -0.499103
 C         1.388711         0.017898        -0.060103
 C        -0.152212        -0.021547        -0.046718
 C         2.162742         0.943244        -0.974065
 C         3.441437         0.653963        -0.045119
 O         4.664169         1.368681         0.013296
 C         2.408668         0.170700         1.092916
 H         3.902614        -2.751049         0.979453
 H         4.933808        -2.038692        -0.200092
 H         4.922022        -1.358738         1.404302
 H        -0.513935        -1.012605         0.180731
 H        -0.559544         0.721813         0.662806
 H        -0.612298         0.453050        -0.953643
 H         2.237173         0.539727        -2.011783
 H         1.963234         2.004100        -0.969435
 H         4.459772         2.328669         0.161535
 H         2.216797         0.040012         2.169416
