19
Iteration:   445charge 0 multiplicity 1
 C         4.262140        -1.865476         0.606282
 C         3.118365        -0.903887         0.356624
 O         2.037601        -1.247043        -0.529236
 C         1.377698         0.110837        -0.152562
 C        -0.063406        -0.069861        -0.010879
 C         2.246493         1.010210        -0.994182
 C         3.359862         0.611355        -0.018243
 O         4.634288         1.336471         0.054583
 C         2.405932         0.155211         1.084219
 H         4.046785        -2.660787         1.348345
 H         4.770465        -2.101529        -0.404752
 H         4.959187        -1.088210         1.024962
 H        -0.196200        -0.756025         0.824049
 H        -0.478567         0.943293         0.183685
 H        -0.551384        -0.516036        -0.835157
 H         2.305874         0.822581        -2.105281
 H         1.923734         2.049241        -0.848914
 H         4.468336         2.240698         0.316121
 H         2.247790         0.616125         2.092192
