19
Iteration:  3683
 C         4.294573        -1.759008         0.740481
 C         3.179731        -0.860321         0.327622
 O         1.958957        -1.228976        -0.386884
 C         1.413479        -0.045497        -0.095695
 C        -0.176378        -0.115056        -0.106243
 C         2.305492         1.061264        -1.039522
 C         3.388896         0.638010        -0.096776
 O         4.623708         1.222893        -0.050795
 C         2.460942         0.278405         1.097616
 H         3.750732        -2.563156         1.291442
 H         5.011164        -2.213325         0.020266
 H         4.912674        -1.158794         1.469652
 H        -0.463566        -1.082128         0.346180
 H        -0.544176         0.677634         0.496897
 H        -0.567679         0.046102        -1.050812
 H         2.097935         0.691845        -2.093847
 H         2.008729         2.128850        -0.905200
 H         4.349890         2.132096        -0.155214
 H         2.454171         0.625955         2.110596
