19
Iteration:  2367charge 0 multiplicity 1
 C         4.230311        -1.889768         0.678406
 C         3.178145        -0.828507         0.387529
 O         2.043509        -1.287719        -0.457093
 C         1.444950        -0.021416        -0.210244
 C        -0.044202        -0.024106         0.022929
 C         2.296921         1.074486        -1.019962
 C         3.343088         0.654549         0.049455
 O         4.628106         1.302867        -0.131462
 C         2.295562         0.225392         1.104800
 H         3.844227        -2.522805         1.502415
 H         4.207345        -2.547028        -0.210509
 H         5.216980        -1.503532         0.901343
 H        -0.362472        -0.710863         0.937398
 H        -0.401186         0.992590         0.243521
 H        -0.603287        -0.340752        -0.915843
 H         2.488695         0.864849        -2.076098
 H         2.033772         2.158427        -0.918061
 H         4.419261         2.221765         0.052428
 H         2.207897         0.420823         2.198676
