19
Iteration:  4570
 C         4.396775        -1.766067         0.610426
 C         3.200660        -0.849349         0.298717
 O         2.017757        -1.447065        -0.395147
 C         1.372212         0.068465        -0.113818
 C        -0.140747         0.110115        -0.038238
 C         2.246589         0.993823        -1.105887
 C         3.343143         0.692039        -0.054364
 O         4.480848         1.313866         0.069748
 C         2.449220         0.218647         1.069202
 H         4.115350        -2.490692         1.418429
 H         4.593554        -2.294654        -0.307970
 H         5.392923        -1.314207         0.980047
 H        -0.258411        -0.828826         0.615723
 H        -0.359494         0.983734         0.612147
 H        -0.632067         0.039854        -0.952263
 H         2.413251         0.504232        -2.081781
 H         1.746384         1.995291        -1.219078
 H         5.147017         0.820576         0.575565
 H         2.172385         0.671627         2.030681
