19
Iteration:  3699charge 0 multiplicity 1
 C         4.244429        -1.723230         0.743151
 C         3.159939        -0.778990         0.336802
 O         2.063152        -1.319210        -0.442137
 C         1.302136         0.056648        -0.096380
 C        -0.130885        -0.055332        -0.101074
 C         2.131567         0.926603        -1.008814
 C         3.391162         0.678824        -0.044549
 O         4.738362         1.218306        -0.030190
 C         2.438983         0.234943         1.094651
 H         3.976642        -2.643703         1.275943
 H         4.754254        -1.940419        -0.205891
 H         5.011735        -1.158231         1.267588
 H        -0.415024        -0.930376         0.487027
 H        -0.658917         0.816507         0.428469
 H        -0.448897        -0.077827        -1.252765
 H         2.336206         0.552708        -2.000019
 H         1.669904         1.925198        -0.921620
 H         4.852626         2.102402        -0.356483
 H         2.382691         0.455785         2.210124
