19
Iteration:  1584charge 0 multiplicity 1
 C         4.270638        -1.804643         0.610321
 C         3.243158        -0.801327         0.253590
 O         1.999080        -1.291177        -0.335199
 C         1.379020         0.028265        -0.127030
 C        -0.161088        -0.043254        -0.072138
 C         2.193552         1.049705        -1.015233
 C         3.343998         0.725156        -0.092656
 O         4.633768         1.160625         0.116566
 C         2.478664         0.202310         1.038025
 H         4.191825        -2.330754         1.567659
 H         4.475285        -2.340349        -0.294861
 H         5.217344        -1.315408         0.886580
 H        -0.624334        -0.608484         0.827934
 H        -0.619865         1.022304        -0.185185
 H        -0.364875        -0.625203        -0.998100
 H         2.270653         0.788115        -2.110558
 H         1.770112         2.091545        -1.045828
 H         4.696725         2.147959         0.065301
 H         2.615986         0.543390         2.111759
