19
Iteration:  3421charge 0 multiplicity 1
 C         4.255017        -1.818984         0.771228
 C         3.183767        -0.803447         0.256892
 O         2.006290        -1.292210        -0.415184
 C         1.395133        -0.020247        -0.106146
 C        -0.089771        -0.002220        -0.112972
 C         2.174219         1.027863        -1.041518
 C         3.384868         0.608418        -0.090871
 O         4.599765         1.242989         0.011629
 C         2.490937         0.286150         1.070625
 H         3.807131        -2.604222         1.297360
 H         4.632279        -2.246705        -0.137129
 H         5.189799        -1.415654         1.283767
 H        -0.314374        -0.539684         0.862166
 H        -0.692232         0.967893         0.000842
 H        -0.538229        -0.599435        -0.954123
 H         2.267348         0.666042        -2.052615
 H         2.076564         2.098065        -0.937153
 H         4.628372         2.132027         0.467292
 H         2.446655         0.561350         2.114086
