19
Iteration:  3986charge 0 multiplicity 1
 C         4.133820        -1.760563         0.749420
 C         3.145976        -0.833602         0.325820
 O         2.081496        -1.190739        -0.506150
 C         1.401219        -0.039142        -0.095176
 C        -0.177279        -0.158316        -0.109838
 C         2.285128         0.982508        -0.958686
 C         3.394980         0.678834         0.032181
 O         4.662021         1.257851        -0.165536
 C         2.456080         0.254152         1.147121
 H         3.908598        -2.236748         1.726831
 H         4.559936        -2.467976        -0.052475
 H         5.038680        -1.083073         0.923427
 H        -0.554244        -0.726592         0.800618
 H        -0.748022         0.811364         0.102221
 H        -0.417650        -0.591071        -1.046299
 H         2.479035         0.688202        -2.014172
 H         1.869752         2.008343        -0.752069
 H         4.540075         2.138414         0.247214
 H         2.483151         0.463248         2.170935
