19
Iteration:  2390
 C         4.125867        -1.876045         0.719391
 C         3.206547        -0.809555         0.268434
 O         2.053598        -1.335764        -0.458628
 C         1.422776         0.022367        -0.044325
 C        -0.083498        -0.020401        -0.078506
 C         2.183536         1.008974        -0.942262
 C         3.411016         0.711248        -0.146781
 O         4.657920         1.315600         0.002002
 C         2.484392         0.206198         1.069691
 H         3.663829        -2.322082         1.660722
 H         4.228514        -2.679003        -0.046083
 H         5.011516        -1.362843         0.995628
 H        -0.446404        -0.843842         0.778125
 H        -0.677002         0.915109         0.194850
 H        -0.431870        -0.323944        -1.068139
 H         1.940728         0.862007        -1.979196
 H         1.815444         2.043842        -0.719979
 H         4.694303         2.259602        -0.345475
 H         2.548943         0.423630         2.143864
