19
Iteration:  2198charge 0 multiplicity 1
 C         4.159508        -1.774849         0.706953
 C         3.192434        -0.769582         0.304265
 O         2.034118        -1.293470        -0.477362
 C         1.388538         0.017663        -0.106867
 C        -0.088780        -0.063423         0.036733
 C         2.248100         0.944937        -1.066187
 C         3.374238         0.677657        -0.090273
 O         4.623542         1.242801         0.003645
 C         2.424769         0.229824         1.055111
 H         3.944098        -2.463952         1.545470
 H         4.438272        -2.342301        -0.195201
 H         5.063728        -1.282230         0.999366
 H        -0.296122        -0.700766         0.817504
 H        -0.401839         1.010250         0.322610
 H        -0.428515        -0.235257        -1.051954
 H         2.345306         0.815095        -2.190519
 H         2.192482         2.013760        -0.914146
 H         4.669455         2.086625         0.467263
 H         2.293642         0.323813         2.155632
