19
Iteration:  3622charge 0 multiplicity 1
 C         4.261069        -1.768812         0.748517
 C         3.221812        -0.792651         0.255899
 O         2.118387        -1.364355        -0.458856
 C         1.376283         0.095595        -0.103280
 C        -0.116192         0.046660         0.001613
 C         2.276835         0.919192        -1.072957
 C         3.344186         0.676453        -0.049782
 O         4.546409         1.282210        -0.023534
 C         2.417731         0.197749         1.035839
 H         3.675850        -2.364451         1.492871
 H         4.552555        -2.466508        -0.046883
 H         5.029222        -1.416943         1.351849
 H        -0.366455        -0.763982         0.697164
 H        -0.552796         1.020901         0.303187
 H        -0.683678        -0.428322        -0.940104
 H         2.106737         0.458280        -2.037590
 H         1.918314         1.961222        -1.116660
 H         4.664344         1.986610         0.628139
 H         2.375085         0.403749         2.046340
