19
Iteration:  3963charge 0 multiplicity 1
 C         4.222445        -1.838687         0.720912
 C         3.222392        -0.792974         0.345092
 O         2.043540        -1.350642        -0.379994
 C         1.381698         0.025105        -0.118842
 C        -0.029445        -0.081057        -0.111571
 C         2.138359         1.046302        -1.008991
 C         3.402818         0.711210        -0.083386
 O         4.627739         1.271834        -0.015562
 C         2.398704         0.247053         1.042743
 H         3.857398        -2.380895         1.604999
 H         4.420116        -2.527852        -0.173269
 H         5.365171        -1.594683         0.938599
 H        -0.354492        -0.380548         0.916054
 H        -0.626699         0.934021        -0.071842
 H        -0.310677        -0.708642        -0.920925
 H         2.275555         0.910077        -2.119423
 H         1.907090         2.144185        -0.685432
 H         4.480323         2.254905        -0.101453
 H         2.135796         0.369032         1.968834
