19
Iteration:  4115
 C         4.338953        -1.896655         0.736678
 C         3.212382        -0.846693         0.324027
 O         2.024072        -1.310789        -0.375942
 C         1.391134        -0.013785        -0.103224
 C        -0.095034        -0.026695        -0.117792
 C         2.052276         1.048634        -1.026935
 C         3.328560         0.717362        -0.172236
 O         4.660543         1.264363         0.048908
 C         2.471318         0.284735         1.029588
 H         4.078744        -2.703932         1.439829
 H         4.798925        -2.476788        -0.055935
 H         5.154213        -1.368439         1.286157
 H        -0.586134        -0.554656         0.729416
 H        -0.533753         0.995713        -0.320093
 H        -0.545032        -0.603640        -0.910243
 H         2.166065         0.812200        -2.104983
 H         1.719803         2.106572        -0.767629
 H         4.595819         2.147261         0.445152
 H         2.534666         0.747670         1.907318
