19
Iteration:  2425charge 0 multiplicity 1
 C         4.249024        -1.843339         0.711194
 C         3.169004        -0.876345         0.303809
 O         2.003906        -1.315493        -0.431422
 C         1.434263         0.055815        -0.059119
 C        -0.151752        -0.002575        -0.082182
 C         2.214259         1.077250        -0.978830
 C         3.369145         0.678351        -0.112729
 O         4.639866         1.227734        -0.025797
 C         2.467658         0.246420         1.049878
 H         3.875167        -2.582511         1.486104
 H         4.883608        -2.383339        -0.019490
 H         4.976908        -1.219248         1.276269
 H        -0.350871        -1.042337         0.515351
 H        -0.805640         0.913003         0.282449
 H        -0.417287        -0.317606        -1.083163
 H         2.028701         0.814320        -2.006191
 H         2.012570         2.091063        -0.695969
 H         4.651538         2.239500        -0.075408
 H         2.557166         0.426897         2.106107
