19
Iteration:   411
 C         4.324531        -1.766086         0.495581
 C         3.296111        -0.807405         0.214648
 O         2.063251        -1.380919        -0.281632
 C         1.370114         0.022637        -0.117934
 C        -0.138322         0.066136        -0.146521
 C         2.071753         1.005645        -1.047412
 C         3.323859         0.761734        -0.066809
 O         4.659508         1.215548         0.186643
 C         2.408465         0.150398         1.098539
 H         3.968950        -2.669438         1.170412
 H         4.564554        -2.319468        -0.499544
 H         5.286459        -1.507944         0.940542
 H        -0.512898        -0.593052         0.658474
 H        -0.678274         1.029358         0.142498
 H        -0.440642        -0.291186        -1.068816
 H         2.223710         0.711735        -2.143876
 H         1.787671         2.052365        -1.024518
 H         4.684978         2.097929         0.564746
 H         2.406658         0.499806         2.085762
