19
Iteration:  3966charge 0 multiplicity 1
 C         4.221283        -1.823167         0.732086
 C         3.208054        -0.793792         0.352405
 O         2.044916        -1.358501        -0.401759
 C         1.364295         0.033126        -0.114980
 C        -0.027019        -0.091547        -0.099297
 C         2.167028         1.065535        -0.995257
 C         3.403323         0.725240        -0.081647
 O         4.632730         1.275327        -0.041368
 C         2.403042         0.225315         1.058152
 H         3.847540        -2.413878         1.585484
 H         4.378199        -2.522675        -0.099235
 H         5.240159        -1.606937         0.886613
 H        -0.374111        -0.500816         0.892905
 H        -0.562504         0.868239        -0.176568
 H        -0.363399        -0.680466        -0.936404
 H         2.286643         0.927470        -2.053682
 H         1.890292         2.090891        -0.821973
 H         4.531466         2.217930        -0.085848
 H         2.138063         0.426035         2.139423
