19
Iteration:   720charge 0 multiplicity 1
 C         4.334584        -1.826239         0.601190
 C         3.135195        -0.946557         0.361782
 O         2.081929        -1.332400        -0.502706
 C         1.415842        -0.030972        -0.125944
 C        -0.033717         0.086334        -0.030293
 C         2.200034         0.981332        -0.989570
 C         3.304722         0.700614         0.037543
 O         4.564315         1.303942        -0.022685
 C         2.384877         0.225658         1.105044
 H         4.160888        -2.772938         1.020885
 H         4.813460        -1.934032        -0.414858
 H         5.089319        -1.333349         1.232934
 H        -0.531097        -0.851232         0.186893
 H        -0.239930         0.821649         0.693495
 H        -0.347437         0.281160        -1.058487
 H         2.217635         0.827302        -2.039950
 H         1.654377         1.925479        -0.805841
 H         4.508505         2.128835         0.466220
 H         2.166822         0.638260         2.064827
