19
Iteration:  3919charge 0 multiplicity 1
 C         4.286906        -1.700419         0.622241
 C         3.174345        -0.840689         0.305859
 O         1.992560        -1.294325        -0.379721
 C         1.378370         0.012719        -0.119812
 C        -0.108548         0.032991        -0.019743
 C         2.301611         0.827212        -1.113992
 C         3.400290         0.643895        -0.045789
 O         4.592957         1.288919         0.038540
 C         2.405199         0.264347         1.098934
 H         4.020819        -2.552919         1.241743
 H         4.812577        -2.096806        -0.287249
 H         5.155287        -1.116487         1.059825
 H        -0.413085        -0.590108         0.837611
 H        -0.710961         0.996051        -0.065493
 H        -0.478402        -0.453885        -0.901646
 H         2.339845         0.354956        -2.103047
 H         1.947281         1.862673        -1.262925
 H         4.415302         2.087402         0.586783
 H         2.216304         0.279891         2.081661
