19
Iteration:  1880
 C         4.165558        -1.796664         0.834574
 C         3.233766        -0.808316         0.236490
 O         2.038698        -1.310520        -0.613297
 C         1.430003         0.029732        -0.073367
 C        -0.095798        -0.012695         0.033501
 C         2.152492         0.986011        -0.967610
 C         3.442665         0.621187        -0.092786
 O         4.635573         1.292956        -0.034363
 C         2.449819         0.222568         1.025227
 H         3.566702        -2.750443         1.222268
 H         4.858767        -2.312878         0.100270
 H         4.830856        -1.237384         1.480065
 H        -0.460331        -0.830180         0.755772
 H        -0.374378         0.972870         0.400804
 H        -0.583359        -0.217152        -0.927885
 H         2.079138         0.807254        -2.080639
 H         1.874405         1.947676        -0.594729
 H         4.466434         2.045202         0.522690
 H         2.348918         0.517710         1.976054
