19
Iteration:  4051charge 0 multiplicity 1
 C         4.349519        -1.722863         0.687153
 C         3.193526        -0.793300         0.352832
 O         2.062911        -1.350545        -0.404020
 C         1.361143        -0.004894        -0.101280
 C        -0.157855         0.061895        -0.034649
 C         2.195513         0.896909        -1.102717
 C         3.379068         0.615127        -0.121223
 O         4.648668         1.246689         0.057793
 C         2.352233         0.256972         1.051134
 H         3.929428        -2.651152         1.131437
 H         4.860272        -1.847405        -0.296554
 H         4.882560        -1.215753         1.503875
 H        -0.440058        -0.965778         0.345823
 H        -0.485373         0.870106         0.670844
 H        -0.517224         0.096361        -1.041261
 H         2.364553         0.577250        -2.165191
 H         1.843849         1.972762        -0.958596
 H         4.572809         2.234426        -0.053098
 H         2.259573         0.431054         2.087735
