19
Iteration:  1460charge 0 multiplicity 1
 C         4.282422        -1.668135         0.593936
 C         3.165213        -0.808592         0.392582
 O         2.030990        -1.281179        -0.482203
 C         1.418044        -0.038820        -0.190021
 C        -0.163070        -0.035857        -0.005517
 C         2.280569         1.042458        -0.972771
 C         3.378059         0.658940         0.013376
 O         4.721760         1.121683        -0.043824
 C         2.256737         0.225696         1.157498
 H         4.179752        -2.675102         0.952482
 H         4.811350        -2.008271        -0.380167
 H         4.934176        -1.071846         1.227969
 H        -0.382630        -1.001075         0.567586
 H        -0.385415         1.082760         0.298048
 H        -0.653542        -0.179863        -1.038664
 H         2.504459         0.720975        -1.992278
 H         1.840742         2.106710        -0.794909
 H         4.590316         2.106369        -0.029437
 H         1.835103         0.519778         2.196066
