19
Iteration:  3823charge 0 multiplicity 1
 C         4.156238        -1.770690         0.748371
 C         3.221483        -0.767366         0.333552
 O         2.055045        -1.301272        -0.433160
 C         1.417430         0.026630        -0.202702
 C        -0.098769        -0.127278        -0.037870
 C         2.296081         0.982319        -0.946362
 C         3.444378         0.592277        -0.068746
 O         4.614628         1.312056        -0.111158
 C         2.341220         0.263805         1.133742
 H         3.574553        -2.444857         1.332377
 H         4.484135        -2.309018        -0.134594
 H         5.055928        -1.399457         1.210964
 H        -0.361006        -0.946702         0.731512
 H        -0.570237         0.864801         0.366587
 H        -0.584843        -0.213316        -0.970660
 H         2.358737         0.831139        -2.022167
 H         2.029789         1.993639        -0.670535
 H         4.365116         2.210268        -0.340463
 H         2.333242         0.408199         2.140752
