19
Iteration:  1831
 C         4.246583        -1.807422         0.588663
 C         3.177342        -0.799689         0.368231
 O         2.033811        -1.282199        -0.412221
 C         1.408712        -0.028342        -0.082583
 C        -0.084310        -0.002233        -0.021469
 C         2.290745         0.945929        -1.017083
 C         3.366932         0.640877        -0.073295
 O         4.601118         1.267293        -0.005091
 C         2.352628         0.277359         1.046255
 H         3.733707        -2.541147         1.132454
 H         4.615645        -2.367492        -0.294504
 H         5.193126        -1.444028         1.096830
 H        -0.427046        -0.837463         0.625865
 H        -0.538915         0.976666         0.326980
 H        -0.433098        -0.199381        -1.107316
 H         2.582905         0.619691        -2.001587
 H         2.121410         2.083202        -0.977618
 H         4.316825         2.115545         0.450946
 H         2.303881         0.677743         2.178212
