19
Iteration:  3470
 C         4.257598        -1.786353         0.806447
 C         3.213883        -0.735966         0.314482
 O         2.029412        -1.313116        -0.531659
 C         1.371632        -0.019056        -0.145287
 C        -0.102644        -0.001718         0.053903
 C         2.253963         0.965825        -1.117743
 C         3.402091         0.646250        -0.068254
 O         4.593940         1.259170         0.000329
 C         2.397360         0.218260         1.032266
 H         3.509711        -2.450414         1.379526
 H         4.822220        -2.448879         0.081057
 H         4.965959        -1.430249         1.525280
 H        -0.475844        -0.774596         0.697492
 H        -0.307626         0.855343         0.629966
 H        -0.651883         0.226136        -0.864454
 H         2.544501         0.625123        -2.163877
 H         1.711338         1.978746        -1.114779
 H         4.562505         2.190895         0.176910
 H         2.551285         0.206879         2.093505
