19
Iteration:  4601
 C         4.316113        -1.665351         0.759571
 C         3.202673        -0.826111         0.301458
 O         1.964383        -1.301480        -0.486643
 C         1.365055        -0.101484        -0.074489
 C        -0.123603         0.085519        -0.069265
 C         2.205501         0.946710        -0.940425
 C         3.432114         0.593245        -0.163296
 O         4.579939         1.336153        -0.044869
 C         2.434905         0.138227         1.080722
 H         3.978683        -2.455001         1.418662
 H         4.702471        -2.165300        -0.174857
 H         5.156935        -1.005571         1.151074
 H        -0.660272        -0.765769         0.346136
 H        -0.325561         0.905979         0.657840
 H        -0.517197         0.274646        -1.073458
 H         2.248304         0.724800        -2.010449
 H         1.831821         1.948827        -0.734098
 H         5.383214         1.187415         0.487901
 H         2.224975         0.310325         2.154744
