19
Iteration:  2864charge 0 multiplicity 1
 C         4.359076        -1.843957         0.662339
 C         3.243241        -0.848547         0.310894
 O         1.959480        -1.340654        -0.386731
 C         1.386267        -0.002520        -0.105229
 C        -0.125860        -0.037560        -0.061037
 C         2.118793         1.079726        -1.032010
 C         3.412614         0.718121        -0.126687
 O         4.658514         1.199560         0.102990
 C         2.369043         0.287836         1.019977
 H         4.079641        -2.780102         1.165602
 H         4.901332        -2.055337        -0.266964
 H         4.944639        -1.378343         1.391907
 H        -0.531810        -0.565809         0.737445
 H        -0.355277         1.001922        -0.051783
 H        -0.571425        -0.386562        -1.036695
 H         2.118648         0.978183        -2.113298
 H         1.775286         2.119835        -0.860323
 H         4.777675         2.130028        -0.065780
 H         2.544401         0.513750         2.083816
