19
Iteration:  4302
 C         4.246919        -1.735719         0.764932
 C         3.165961        -0.872762         0.232958
 O         1.942193        -1.276583        -0.411101
 C         1.440070         0.040599        -0.135022
 C        -0.078326        -0.114004        -0.066091
 C         2.189676         1.079065        -1.006483
 C         3.426830         0.647751        -0.102361
 O         4.615983         1.228361        -0.016163
 C         2.514750         0.258665         1.051516
 H         3.771900        -2.629302         1.295602
 H         4.998722        -2.185173         0.034227
 H         4.653048        -1.024079         1.455045
 H        -0.280070        -0.690506         0.914784
 H        -0.673691         0.768073        -0.302797
 H        -0.388491        -0.894900        -0.803395
 H         2.117846         0.927311        -2.108013
 H         1.848501         2.115676        -0.770369
 H         4.446073         2.006699         0.508015
 H         2.438299         0.299459         2.190584
