19
Iteration:  1351charge 0 multiplicity 1
 C         4.188541        -1.876204         0.725981
 C         3.141457        -0.822707         0.251884
 O         2.131487        -1.313585        -0.565361
 C         1.419964         0.088294        -0.123106
 C        -0.087238         0.004421         0.025514
 C         2.223639         0.994855        -0.988392
 C         3.379014         0.708527        -0.042730
 O         4.608002         1.372429        -0.035667
 C         2.358589         0.118026         1.087814
 H         3.833887        -2.524790         1.473927
 H         4.478804        -2.356119        -0.215710
 H         5.030932        -1.423273         1.173681
 H        -0.269689        -0.864907         0.719398
 H        -0.292499         0.947889         0.615942
 H        -0.727327        -0.245206        -0.838168
 H         2.292209         0.591890        -1.992299
 H         1.940290         2.059998        -1.146348
 H         4.720761         1.669600         0.882341
 H         2.406066         0.191851         2.145492
