19
Iteration:  3627charge 0 multiplicity 1
 C         4.252344        -1.800322         0.768843
 C         3.222542        -0.776072         0.246160
 O         2.108888        -1.341047        -0.472165
 C         1.339259         0.039885        -0.082156
 C        -0.116720         0.016682        -0.001903
 C         2.272512         0.890957        -1.068568
 C         3.336764         0.723757        -0.045828
 O         4.570518         1.279948        -0.038888
 C         2.402833         0.236118         1.009556
 H         3.640299        -2.426890         1.412424
 H         4.640248        -2.468123        -0.017442
 H         5.168463        -1.408469         1.382272
 H        -0.419733        -0.735629         0.749720
 H        -0.431939         1.017990         0.367946
 H        -0.476039        -0.208045        -0.935884
 H         2.256086         0.492400        -2.122121
 H         1.935531         1.944380        -0.974053
 H         4.615200         1.907495         0.701268
 H         2.419373         0.455902         2.146950
