19
Iteration:  1084charge 0 multiplicity 1
 C         4.404355        -1.709998         0.613153
 C         3.143895        -0.887492         0.375253
 O         1.946454        -1.287439        -0.511810
 C         1.404548        -0.035505        -0.175037
 C        -0.038200         0.013370        -0.062910
 C         2.302744         0.996857        -0.941106
 C         3.311002         0.677907         0.076357
 O         4.592362         1.215018        -0.093853
 C         2.283250         0.227649         1.137778
 H         4.183166        -2.746690         1.031486
 H         4.863043        -1.934692        -0.312486
 H         5.058271        -1.184212         1.365633
 H        -0.253953        -0.995748         0.306402
 H        -0.502029         0.860139         0.617302
 H        -0.348255         0.308668        -1.095723
 H         2.540691         0.734119        -2.010938
 H         1.875695         2.014881        -0.745033
 H         4.786089         1.885816         0.560992
 H         2.160288         0.383025         2.143180
