19
Iteration:  1502
 C         4.230451        -1.785092         0.781172
 C         3.152906        -0.839296         0.212419
 O         1.987311        -1.261971        -0.489113
 C         1.431817        -0.011002        -0.028213
 C        -0.078435        -0.037091        -0.053796
 C         2.055067         0.988253        -1.015904
 C         3.464522         0.661009        -0.157359
 O         4.671969         1.278785         0.036551
 C         2.520882         0.169576         1.028732
 H         3.542696        -2.650374         1.090376
 H         5.150804        -2.319465         0.117720
 H         4.806229        -1.189985         1.505626
 H        -0.437298        -0.954137         0.445269
 H        -0.382797         0.900147         0.494106
 H        -0.313523         0.293144        -1.111849
 H         1.962904         0.845493        -2.124112
 H         1.758425         1.978320        -0.612335
 H         4.427215         2.068703         0.582761
 H         2.345877         0.562718         2.098756
