19
Iteration:  3302
 C         4.245343        -1.829292         0.859011
 C         3.213285        -0.868931         0.331273
 O         1.981587        -1.347328        -0.479506
 C         1.435730        -0.003265        -0.153063
 C        -0.093748         0.066030         0.021433
 C         2.224809         0.980564        -1.062656
 C         3.341838         0.675730        -0.136119
 O         4.598216         1.315477        -0.026544
 C         2.455865         0.212135         0.949313
 H         3.754613        -2.607790         1.381409
 H         4.784456        -2.093981        -0.035223
 H         4.957238        -1.206130         1.499743
 H        -0.294698        -0.886224         0.524852
 H        -0.519608         0.778617         0.639907
 H        -0.571672         0.031145        -0.970998
 H         2.341494         0.767054        -2.122046
 H         2.014341         2.024556        -0.721656
 H         4.770822         1.954589         0.693302
 H         2.338038         0.513115         1.943922
