19
Iteration:  3545charge 0 multiplicity 1
 C         4.301092        -1.728672         0.642741
 C         3.136713        -0.745923         0.377362
 O         1.987439        -1.287254        -0.442878
 C         1.372652        -0.002407        -0.078997
 C        -0.046737        -0.036589        -0.149430
 C         2.221086         0.900560        -0.925201
 C         3.320110         0.648825        -0.007089
 O         4.692965         1.176019        -0.076823
 C         2.409387         0.334132         1.149001
 H         4.079082        -2.629301         1.286549
 H         4.592405        -2.102249        -0.367280
 H         5.154790        -1.279410         1.058103
 H        -0.457489        -0.672595         0.669891
 H        -0.571089         0.907532        -0.215900
 H        -0.288102        -0.559995        -1.217893
 H         2.278157         0.550765        -1.964496
 H         1.852863         1.935857        -1.007377
 H         4.535990         2.078399         0.332867
 H         2.098227         0.674061         2.101807
