19
Iteration:   111
 C         4.172112        -1.923778         0.639413
 C         3.232372        -0.817262         0.268635
 O         2.108347        -1.264720        -0.596656
 C         1.421244        -0.058008        -0.114796
 C        -0.054627         0.025832         0.111909
 C         2.243324         0.978888        -1.004303
 C         3.388890         0.683480        -0.046970
 O         4.482501         1.456739         0.151619
 C         2.408728         0.189308         0.991724
 H         3.481046        -2.653698         1.090671
 H         4.628208        -2.395481        -0.160501
 H         4.993453        -1.717410         1.349726
 H        -0.434355        -0.570593         0.914177
 H        -0.276303         1.011172         0.329097
 H        -0.501941        -0.265634        -0.849928
 H         2.415021         0.674021        -2.024638
 H         1.868450         2.027236        -0.893214
 H         5.226482         1.034774        -0.342429
 H         2.131639         0.418184         2.017779
