19
Iteration:  2112
 C         4.319936        -1.785399         0.646365
 C         3.187330        -0.801126         0.347914
 O         1.977729        -1.276349        -0.354868
 C         1.369337         0.002309        -0.110274
 C        -0.134502        -0.044772        -0.085763
 C         2.186548         1.032460        -0.992974
 C         3.407441         0.685741        -0.087018
 O         4.682636         1.197356        -0.054666
 C         2.410804         0.222907         1.108930
 H         3.825613        -2.611377         1.135628
 H         4.815357        -2.322184        -0.155457
 H         5.100627        -1.291881         1.213211
 H        -0.689176        -0.658469         0.518160
 H        -0.576987         0.981341         0.101529
 H        -0.492439        -0.237824        -1.177621
 H         2.376332         0.824483        -2.045524
 H         1.958288         2.079608        -0.992769
 H         4.635030         2.110852         0.244936
 H         2.251908         0.205567         2.244736
