19
Iteration:  2281
 C         4.327010        -1.768860         0.724884
 C         3.133551        -0.839203         0.428199
 O         2.040171        -1.239782        -0.500035
 C         1.341220        -0.027209        -0.055754
 C        -0.117607         0.044608        -0.055250
 C         2.279492         0.996828        -1.004590
 C         3.345447         0.642100        -0.026766
 O         4.631381         1.183122        -0.122386
 C         2.401640         0.255593         1.094435
 H         4.023491        -2.822143         1.010739
 H         4.699647        -1.758552        -0.340982
 H         5.183264        -1.463551         1.321588
 H        -0.532422        -0.906293         0.536920
 H        -0.434198         1.022947         0.257194
 H        -0.458506        -0.284919        -1.008652
 H         2.594956         0.660393        -1.962071
 H         1.731887         1.943629        -0.950446
 H         4.595471         2.109373         0.120524
 H         2.054063         0.323183         2.168824
