19
Iteration:  1083
 C         4.389509        -1.702402         0.611370
 C         3.147889        -0.888217         0.376275
 O         1.949750        -1.287270        -0.516640
 C         1.397886        -0.042570        -0.182709
 C        -0.034508         0.010399        -0.058982
 C         2.306225         0.982326        -0.934088
 C         3.310823         0.686248         0.076691
 O         4.595263         1.213246        -0.089602
 C         2.288916         0.234058         1.136736
 H         4.133021        -2.746330         1.031453
 H         4.871341        -1.899359        -0.303996
 H         5.058155        -1.181580         1.322993
 H        -0.277561        -0.976972         0.332807
 H        -0.505244         0.852203         0.621881
 H        -0.333595         0.297665        -1.078463
 H         2.523712         0.745114        -1.994762
 H         1.888002         2.031668        -0.755417
 H         4.782652         1.884261         0.561646
 H         2.181992         0.379188         2.110362
