19
Iteration:  2347
 C         4.227356        -1.750774         0.648270
 C         3.149116        -0.836927         0.332291
 O         2.067833        -1.247546        -0.462288
 C         1.431210         0.067001        -0.110711
 C        -0.138488         0.018816        -0.010553
 C         2.220688         0.902159        -1.021549
 C         3.396585         0.604237        -0.091900
 O         4.648426         1.240950        -0.013953
 C         2.363762         0.204896         1.095384
 H         4.097286        -2.557480         1.449289
 H         4.553127        -2.242027        -0.313264
 H         5.139915        -1.274067         0.943761
 H        -0.321058        -0.759835         0.902997
 H        -0.482661         1.059788         0.287315
 H        -0.614063        -0.363206        -0.918024
 H         2.440606         0.582304        -2.007765
 H         1.937130         1.956183        -0.948187
 H         4.533474         2.078467         0.523573
 H         2.185454         0.674709         2.058529
