19
Iteration:  4970charge 0 multiplicity 1
 C         4.157342        -1.892052         0.695304
 C         3.185121        -0.862977         0.285058
 O         2.107271        -1.237933        -0.520586
 C         1.416850        -0.010302        -0.059448
 C        -0.127749        -0.095097        -0.126962
 C         2.161216         1.069879        -0.923687
 C         3.383003         0.673353        -0.031408
 O         4.569440         1.351440        -0.000521
 C         2.498026         0.264970         1.141714
 H         4.023631        -2.164285         1.707035
 H         4.058629        -2.725115        -0.070434
 H         5.182720        -1.379042         0.588135
 H        -0.584069        -0.929592         0.387861
 H        -0.375827         0.842138         0.398488
 H        -0.457712         0.016890        -1.169935
 H         2.347186         0.839105        -1.972795
 H         1.804792         2.114389        -0.727636
 H         5.294243         0.813631        -0.338346
 H         2.522387         0.554725         2.227654
