19
Iteration:  4162
 C         4.194613        -1.715037         0.745077
 C         3.151842        -0.812409         0.394992
 O         2.014751        -1.312683        -0.523031
 C         1.420780         0.003068        -0.161671
 C        -0.103696        -0.166056        -0.016232
 C         2.276217         1.077959        -0.982692
 C         3.393532         0.729837        -0.014070
 O         4.778231         1.259245        -0.134107
 C         2.275091         0.217487         1.127835
 H         4.023100        -2.402634         1.624511
 H         4.200346        -2.538820        -0.038437
 H         5.177740        -1.320761         0.839124
 H        -0.369643        -0.823547         0.851198
 H        -0.700692         0.717504        -0.093969
 H        -0.572704        -0.721122        -0.837217
 H         2.455139         0.911569        -2.098958
 H         1.802287         2.035135        -0.666329
 H         4.826423         2.199083         0.013555
 H         1.908052         0.347192         2.253268
