19
Iteration:  4304charge 0 multiplicity 1
 C         4.229774        -1.737708         0.756721
 C         3.166771        -0.882637         0.242723
 O         1.956140        -1.265023        -0.416257
 C         1.422990         0.034320        -0.114756
 C        -0.066707        -0.122238        -0.057933
 C         2.186558         1.080933        -1.000814
 C         3.438421         0.645140        -0.116359
 O         4.618418         1.228035        -0.014720
 C         2.507508         0.252002         1.044210
 H         3.852307        -2.589779         1.354582
 H         4.979626        -2.178872         0.057121
 H         4.604552        -1.018496         1.421961
 H        -0.338203        -0.632005         0.881926
 H        -0.613242         0.754947        -0.302717
 H        -0.384907        -0.891309        -0.833769
 H         2.144327         0.979354        -2.129412
 H         1.855655         2.104586        -0.762191
 H         4.435878         2.050968         0.461382
 H         2.381187         0.338103         2.152803
