19
Iteration:  3523charge 0 multiplicity 1
 C         4.281643        -1.793332         0.687864
 C         3.223617        -0.793378         0.350030
 O         1.987603        -1.334228        -0.300360
 C         1.364562         0.077717        -0.114648
 C        -0.168329        -0.079206        -0.144478
 C         2.286055         1.060929        -1.019440
 C         3.412741         0.635745        -0.059810
 O         4.613473         1.207643        -0.083543
 C         2.403264         0.231825         1.082080
 H         4.189679        -2.660688         1.386890
 H         4.764810        -2.069296        -0.271856
 H         4.944181        -1.132452         1.204751
 H        -0.503488        -0.929780         0.498447
 H        -0.610313         0.841677         0.185472
 H        -0.604405        -0.264712        -1.257961
 H         2.395244         1.014072        -2.122726
 H         2.017401         2.135878        -0.888376
 H         4.705090         2.018172         0.395908
 H         2.172313         0.546891         2.092590
