19
Iteration:  3906charge 0 multiplicity 1
 C         4.415248        -1.741000         0.644062
 C         3.114575        -0.789641         0.356998
 O         1.962630        -1.326656        -0.365214
 C         1.419462         0.071009        -0.147835
 C        -0.061265        -0.007009        -0.060042
 C         2.226680         0.885121        -1.045837
 C         3.338847         0.639892        -0.071081
 O         4.631977         1.274531        -0.024102
 C         2.291302         0.228741         1.043765
 H         4.151091        -2.643251         1.253978
 H         4.834266        -2.050664        -0.336100
 H         5.011869        -1.052864         1.387656
 H        -0.326944        -0.642979         0.773071
 H        -0.140106         1.081290         0.270402
 H        -0.625258        -0.358030        -1.010258
 H         2.547108         0.355837        -2.012683
 H         2.003859         2.021124        -1.137167
 H         4.681104         1.947967         0.672529
 H         2.135733         0.293159         2.181251
