19
Iteration:  4209
 C         4.255108        -1.681156         0.713733
 C         3.213387        -0.836954         0.273263
 O         1.975264        -1.346472        -0.410205
 C         1.367450        -0.029505        -0.074923
 C        -0.088425         0.027811        -0.096821
 C         2.152158         0.906753        -0.988792
 C         3.414433         0.623706        -0.163978
 O         4.647452         1.288905         0.094810
 C         2.500014         0.246687         1.005470
 H         3.945614        -2.486766         1.359355
 H         4.661829        -2.239047        -0.115941
 H         5.081161        -1.112817         1.247662
 H        -0.410461        -0.892241         0.248555
 H        -0.501424         0.915231         0.356900
 H        -0.485869         0.112226        -1.145867
 H         2.012665         0.494795        -1.990579
 H         1.741731         1.889876        -0.920603
 H         4.404252         2.226419         0.351156
 H         2.551551         0.485088         2.099260
