19
Iteration:  3526charge 0 multiplicity 1
 C         4.291138        -1.778807         0.655309
 C         3.216979        -0.841044         0.332822
 O         2.002416        -1.343815        -0.301891
 C         1.377136         0.104304        -0.110075
 C        -0.173346        -0.082782        -0.162303
 C         2.272346         1.049598        -1.018551
 C         3.415124         0.638505        -0.025569
 O         4.621742         1.208904        -0.093377
 C         2.354720         0.256920         1.114329
 H         4.132448        -2.614825         1.403672
 H         4.775371        -2.159845        -0.276755
 H         4.896925        -1.100717         1.256410
 H        -0.470699        -0.881118         0.469619
 H        -0.589551         0.881401         0.173759
 H        -0.548314        -0.339444        -1.122834
 H         2.429277         0.953304        -2.144924
 H         1.998120         2.140381        -0.894958
 H         4.781201         2.064858         0.392081
 H         2.288671         0.611730         2.095435
