19
Iteration:  3591charge 0 multiplicity 1
 C         4.335586        -1.750953         0.693597
 C         3.178420        -0.893029         0.333832
 O         1.907150        -1.321307        -0.438057
 C         1.451600        -0.061564        -0.121986
 C        -0.086047        -0.020273        -0.030310
 C         2.301225         0.935573        -1.002781
 C         3.364362         0.641790        -0.071296
 O         4.607345         1.298467         0.054399
 C         2.379756         0.316317         0.964267
 H         4.036442        -2.425848         1.536925
 H         4.637095        -2.402162        -0.147514
 H         5.191314        -1.129278         0.997401
 H        -0.513268        -0.361851         0.912922
 H        -0.513764         1.032321        -0.199764
 H        -0.588048        -0.517415        -0.923736
 H         2.193706         0.891472        -2.122630
 H         1.865506         1.921724        -0.683018
 H         4.721672         2.270814         0.078374
 H         2.368186         0.627997         1.964209
