19
Iteration:  1920
 C         4.242941        -1.807168         0.652511
 C         3.134912        -0.841028         0.348094
 O         1.987692        -1.323331        -0.523938
 C         1.399236        -0.024846        -0.116199
 C        -0.037376        -0.046288        -0.036091
 C         2.231656         1.000487        -0.917901
 C         3.347605         0.716265         0.010326
 O         4.729836         1.244780        -0.050966
 C         2.327193         0.283137         1.072572
 H         3.778664        -2.550250         1.232391
 H         4.745603        -2.195410        -0.233641
 H         4.969859        -1.236666         1.293507
 H        -0.216884        -0.848646         0.761189
 H        -0.497573         0.896538         0.290713
 H        -0.379720        -0.320159        -1.030427
 H         2.262860         0.804253        -1.983012
 H         1.899476         2.077954        -0.820389
 H         4.762981         2.236845        -0.183475
 H         2.172202         0.584711         2.166992
