19
Iteration:   803
 C         4.244747        -1.828789         0.538840
 C         3.184191        -0.777571         0.287575
 O         2.068267        -1.329845        -0.469222
 C         1.394592         0.026486        -0.120768
 C        -0.068686        -0.151644        -0.021603
 C         2.235508         1.141133        -0.862237
 C         3.383734         0.686453         0.007375
 O         4.665786         1.239382         0.022731
 C         2.329948         0.252704         1.048744
 H         3.840753        -2.523398         1.323537
 H         4.215924        -2.494106        -0.336980
 H         5.274042        -1.426354         0.761863
 H        -0.337222        -0.396273         0.988992
 H        -0.656066         0.709727        -0.405745
 H        -0.332906        -0.901790        -0.798246
 H         2.291224         0.942703        -1.974936
 H         1.851879         2.129151        -0.609354
 H         4.605974         2.208588         0.228041
 H         1.792013         0.577174         1.891579
