19
Iteration:   287
 C         4.168879        -1.940924         0.627711
 C         3.171202        -0.890740         0.286952
 O         2.020494        -1.299078        -0.500826
 C         1.375507        -0.000018        -0.181114
 C        -0.102056        -0.065778         0.025461
 C         2.326693         1.066319        -0.942355
 C         3.396066         0.679877        -0.008779
 O         4.635055         1.446559        -0.035441
 C         2.408844         0.209534         1.040432
 H         3.902966        -2.923569         1.130244
 H         4.818462        -2.348027        -0.126735
 H         4.870976        -1.349313         1.311738
 H        -0.086109        -0.790269         0.809273
 H        -0.453005         0.826258         0.380762
 H        -0.729556        -0.392280        -0.811004
 H         2.413604         0.957447        -1.996306
 H         1.943321         2.053047        -0.675434
 H         4.715759         1.838074         0.841570
 H         1.905552         0.638728         1.982622
