19
Iteration:  2948
 C         4.173824        -1.828071         0.744985
 C         3.210752        -0.805154         0.246689
 O         2.063713        -1.234409        -0.410999
 C         1.423745         0.017385        -0.055385
 C        -0.048425        -0.037073        -0.067139
 C         2.132912         0.960523        -0.996442
 C         3.440583         0.599125        -0.228596
 O         4.567028         1.269315         0.029593
 C         2.479135         0.250949         1.069465
 H         3.687096        -2.622103         1.362021
 H         4.657051        -2.296704        -0.155440
 H         5.176656        -1.425080         1.129723
 H        -0.565798        -0.880295         0.478333
 H        -0.595264         0.882921         0.491331
 H        -0.335357        -0.095489        -1.091635
 H         2.261203         0.777073        -2.096430
 H         1.957526         1.983437        -0.670608
 H         4.434411         2.172860         0.429042
 H         2.215192         0.615799         2.117690
