19
Iteration:  3075
 C         4.181070        -1.848827         0.840767
 C         3.242107        -0.805870         0.337769
 O         2.025066        -1.266473        -0.545127
 C         1.414915         0.038997        -0.146333
 C        -0.043142        -0.103709        -0.062820
 C         2.208140         1.103566        -0.972441
 C         3.377469         0.609920        -0.057242
 O         4.601057         1.220034        -0.147463
 C         2.436335         0.251916         1.153561
 H         3.644724        -2.676375         1.256620
 H         4.713046        -2.221020        -0.016996
 H         4.974102        -1.479403         1.573933
 H        -0.225032        -0.823301         0.809431
 H        -0.345724         0.871016         0.258723
 H        -0.766409        -0.301242        -0.985352
 H         2.247558         0.986672        -2.059859
 H         1.838636         2.101019        -0.752877
 H         4.454645         2.160916         0.146283
 H         2.378417         0.733055         2.179316
