19
Iteration:  2596charge 0 multiplicity 1
 C         4.254992        -1.774171         0.752220
 C         3.165356        -0.859940         0.201069
 O         1.968964        -1.328164        -0.439517
 C         1.381658         0.061024        -0.062098
 C        -0.125652        -0.036146        -0.021960
 C         2.169298         1.047411        -1.010754
 C         3.389589         0.659540        -0.143950
 O         4.671677         1.209854         0.090385
 C         2.529165         0.247982         0.988672
 H         3.971337        -2.390980         1.660858
 H         4.505159        -2.614338         0.043113
 H         5.157041        -1.226400         0.794445
 H        -0.393001        -0.964819         0.588825
 H        -0.790004         0.756314         0.271533
 H        -0.228639        -0.065885        -1.128787
 H         2.168309         0.917381        -2.127914
 H         1.672386         2.040106        -0.781198
 H         4.545266         2.168440         0.283562
 H         2.701117         0.684231         2.000964
