19
Iteration:  3414charge 0 multiplicity 1
 C         4.269786        -1.788747         0.714593
 C         3.250872        -0.859872         0.278081
 O         1.996297        -1.221624        -0.397405
 C         1.359940        -0.019825        -0.089255
 C        -0.141213        -0.002886        -0.151125
 C         2.150021         0.945028        -0.987592
 C         3.403965         0.694500        -0.067298
 O         4.645213         1.205804         0.010121
 C         2.498991         0.297987         1.033808
 H         3.635069        -2.499667         1.341713
 H         4.710083        -2.385777        -0.142379
 H         5.155711        -1.463541         1.233872
 H        -0.461050        -0.505492         0.761054
 H        -0.599717         0.918029        -0.121740
 H        -0.485742        -0.731017        -0.949200
 H         2.341944         0.551045        -2.034305
 H         1.750333         2.011397        -0.845146
 H         4.534308         2.011846         0.531892
 H         2.381133         0.717897         2.101437
