19
Iteration:  2490
 C         4.355925        -1.710838         0.577515
 C         3.181958        -0.854895         0.279118
 O         1.943277        -1.276820        -0.338957
 C         1.383878        -0.017988        -0.084928
 C        -0.126818         0.068906        -0.056749
 C         2.172750         0.937745        -1.035985
 C         3.378578         0.583647        -0.146572
 O         4.641626         1.164096         0.108539
 C         2.456306         0.290822         0.989973
 H         4.113391        -2.636457         1.115942
 H         5.161556        -1.621429        -0.146515
 H         4.672950        -1.150348         1.479188
 H        -0.542657        -0.733373         0.706197
 H        -0.441283         1.151647         0.157646
 H        -0.413500        -0.367762        -0.984496
 H         2.104957         0.639677        -2.082040
 H         2.048985         2.028190        -0.859734
 H         4.560119         2.087367         0.405611
 H         2.474335         0.393454         2.083973
