19
Iteration:  4086charge 0 multiplicity 1
 C         4.256421        -1.715155         0.643803
 C         3.163558        -0.812672         0.370974
 O         2.005131        -1.409621        -0.400050
 C         1.432782        -0.041512        -0.167651
 C        -0.049204         0.093129        -0.054066
 C         2.299834         0.846254        -1.026926
 C         3.339108         0.654716        -0.059353
 O         4.566271         1.326657        -0.032411
 C         2.359982         0.274666         1.119415
 H         3.860040        -2.740731         0.971703
 H         4.905595        -1.988143        -0.266397
 H         5.048355        -1.325495         1.228025
 H        -0.338161        -0.701764         0.718047
 H        -0.558894         1.002027         0.228550
 H        -0.556568        -0.152033        -1.016919
 H         2.634679         0.653292        -2.078159
 H         2.000079         1.913844        -0.984018
 H         4.432429         2.245520         0.355152
 H         2.526771         0.387891         2.306486
