19
Iteration:   745charge 0 multiplicity 1
 C         4.356524        -1.665407         0.536632
 C         3.231100        -0.829902         0.214021
 O         2.051074        -1.387294        -0.340911
 C         1.355597        -0.044732        -0.159139
 C        -0.109208         0.087519        -0.069635
 C         2.256999         1.021405        -1.003065
 C         3.330954         0.630733        -0.021715
 O         4.583732         1.227353         0.078630
 C         2.346409         0.183498         1.083506
 H         4.033068        -2.610606         1.201966
 H         4.620981        -2.061328        -0.485497
 H         5.294058        -1.274960         0.927705
 H        -0.606390        -0.637529         0.633881
 H        -0.169257         1.155186         0.287867
 H        -0.575279        -0.101389        -1.014390
 H         2.248726         1.004205        -2.117171
 H         1.833239         2.038991        -0.738827
 H         4.433331         1.851506         0.798567
 H         2.241833         0.154962         2.193532
