19
Iteration:  2535
 C         4.220312        -1.918253         0.734401
 C         3.179406        -0.833915         0.320774
 O         2.105753        -1.175533        -0.486349
 C         1.409375         0.015098        -0.125813
 C        -0.048705        -0.013993        -0.013142
 C         2.193822         0.969416        -1.023682
 C         3.367293         0.692674        -0.005416
 O         4.619516         1.252007        -0.112667
 C         2.354373         0.218089         1.140376
 H         3.882668        -2.661604         1.439018
 H         4.511737        -2.295537        -0.236808
 H         5.151309        -1.464302         1.201159
 H        -0.486335        -0.691691         0.774037
 H        -0.374082         1.090443         0.142117
 H        -0.444487        -0.454876        -0.953861
 H         2.407561         0.842873        -2.080972
 H         1.632489         1.905313        -0.849274
 H         4.468134         2.192444         0.019963
 H         2.271581         0.329955         2.252149
