19
Iteration:  3430charge 0 multiplicity 1
 C         4.215303        -1.829943         0.760498
 C         3.160234        -0.831473         0.329164
 O         2.027739        -1.364168        -0.434080
 C         1.427080         0.085751        -0.141908
 C        -0.064405        -0.040202        -0.014440
 C         2.263486         1.047390        -1.071337
 C         3.357168         0.632660        -0.142201
 O         4.596950         1.268791        -0.001775
 C         2.422993         0.239537         1.071747
 H         3.902672        -2.646341         1.389678
 H         4.670250        -2.231167        -0.141569
 H         4.932732        -1.205381         1.354209
 H        -0.428909        -0.659886         0.826876
 H        -0.424064         1.078403         0.010726
 H        -0.448950        -0.426309        -0.930589
 H         2.193789         0.883573        -2.127259
 H         2.064299         2.094570        -0.936817
 H         4.384874         2.169764         0.382680
 H         2.507519         0.383046         2.101574
