19
Iteration:  4704charge 0 multiplicity 1
 C         4.328588        -1.794034         0.615372
 C         3.174581        -0.858696         0.272663
 O         2.012612        -1.267125        -0.380695
 C         1.354558         0.011957        -0.216728
 C        -0.048366         0.029904         0.056358
 C         2.275295         0.867759        -1.003348
 C         3.355200         0.589070        -0.104145
 O         4.540979         1.346326         0.172680
 C         2.408248         0.296530         0.967057
 H         3.941758        -2.698589         1.199981
 H         4.769294        -2.137483        -0.326019
 H         4.974063        -1.195817         1.202630
 H        -0.152528        -0.361969         1.065873
 H        -0.434488         1.011572        -0.147123
 H        -0.576940        -0.595184        -0.652743
 H         2.173547         0.701972        -2.101170
 H         1.943452         1.907341        -0.821905
 H         5.078289         1.336896        -0.648497
 H         1.976939         0.621609         1.976289
