19
Iteration:  3977
 C         4.198470        -1.810691         0.746797
 C         3.146028        -0.811680         0.318705
 O         2.068662        -1.287273        -0.448645
 C         1.482402        -0.002115        -0.117552
 C        -0.143209        -0.120115        -0.077247
 C         2.266783         1.063396        -0.966657
 C         3.332482         0.690984        -0.041663
 O         4.665597         1.283634        -0.110495
 C         2.403522         0.225179         1.115701
 H         3.882071        -2.366188         1.656977
 H         4.156703        -2.493980        -0.104685
 H         5.022753        -1.208268         0.976482
 H        -0.526693        -0.769043         0.769663
 H        -0.557667         0.882922        -0.177212
 H        -0.373365        -0.727620        -0.950959
 H         2.328094         0.729140        -1.976319
 H         1.781930         1.993492        -0.827072
 H         4.610376         2.248120         0.043164
 H         2.427339         0.514889         2.253357
