19
Iteration:  1128charge 0 multiplicity 1
 C         4.211728        -1.747803         0.647627
 C         3.219725        -0.831410         0.182630
 O         1.987137        -1.317643        -0.456149
 C         1.382680        -0.128910        -0.006542
 C        -0.079103        -0.023148        -0.185825
 C         2.140030         0.976090        -0.891255
 C         3.384246         0.739021        -0.105873
 O         4.676045         1.212782         0.072866
 C         2.522916         0.291030         1.123412
 H         3.714713        -2.552395         1.215343
 H         4.754724        -2.194430        -0.182171
 H         5.014518        -1.146750         1.181683
 H        -0.691832        -0.813852         0.263008
 H        -0.527140         0.844803         0.468438
 H        -0.254570         0.378686        -1.222433
 H         2.130661         0.827273        -2.030960
 H         1.587308         1.921599        -0.687429
 H         4.481820         2.140986         0.237568
 H         2.528683         0.528689         2.177858
