19
Iteration:  1482
 C         4.288217        -1.708226         0.747269
 C         3.172249        -0.858335         0.264140
 O         2.029635        -1.297801        -0.475857
 C         1.384100         0.029731        -0.083592
 C        -0.131142        -0.015089        -0.052308
 C         2.199786         1.066267        -0.985564
 C         3.338801         0.664083        -0.056618
 O         4.623434         1.149887        -0.001811
 C         2.428038         0.207102         1.012319
 H         3.963339        -2.704034         1.047770
 H         4.996105        -2.084701        -0.092866
 H         4.889012        -1.162633         1.475640
 H        -0.185470        -1.031998         0.418416
 H        -0.458024         0.917833         0.577677
 H        -0.603559         0.026607        -1.080532
 H         2.360678         0.802660        -2.025741
 H         1.993218         2.179130        -0.758119
 H         4.542533         2.068700         0.268780
 H         2.619056         0.287745         2.117267
