19
Iteration:  2487charge 0 multiplicity 1
 C         4.374206        -1.693477         0.594469
 C         3.177057        -0.842342         0.297481
 O         1.947616        -1.271493        -0.351806
 C         1.367834        -0.004265        -0.072804
 C        -0.117401         0.068056        -0.063011
 C         2.178250         0.944855        -1.051438
 C         3.397110         0.607909        -0.141975
 O         4.632637         1.141981         0.092878
 C         2.452717         0.246108         1.017617
 H         4.088292        -2.682495         1.056862
 H         5.152198        -1.660525        -0.204050
 H         4.769387        -1.240560         1.468435
 H        -0.499497        -0.668830         0.703448
 H        -0.416142         1.064191         0.172564
 H        -0.505881        -0.330017        -0.984596
 H         2.034345         0.575452        -2.116004
 H         1.994653         2.092247        -0.976827
 H         4.512852         2.067662         0.461352
 H         2.358428         0.489438         2.056381
