19
Iteration:  1683
 C         4.186951        -1.929061         0.773953
 C         3.281455        -0.847632         0.205846
 O         2.020553        -1.279869        -0.410571
 C         1.413294         0.036918        -0.090085
 C        -0.128411        -0.049827        -0.024090
 C         2.188323         1.012486        -1.041915
 C         3.400763         0.641003        -0.148332
 O         4.561785         1.319745         0.073772
 C         2.503282         0.277448         0.974306
 H         3.535916        -2.788946         1.171702
 H         4.953114        -2.163641         0.059658
 H         4.829492        -1.651140         1.667184
 H        -0.317950        -0.958825         0.638972
 H        -0.506175         0.752742         0.658374
 H        -0.660994         0.023577        -1.010928
 H         2.353861         0.917639        -2.176731
 H         1.981798         2.101778        -0.885809
 H         4.344402         2.252869        -0.069231
 H         2.752787         0.742283         1.994170
