19
Iteration:  3497charge 0 multiplicity 1
 C         4.218627        -1.786899         0.730794
 C         3.166920        -0.801918         0.294208
 O         2.035762        -1.369873        -0.443658
 C         1.402868         0.039671        -0.092861
 C        -0.037841        -0.019314        -0.088522
 C         2.102255         0.956307        -1.025697
 C         3.408646         0.630420        -0.085797
 O         4.656902         1.236366         0.010754
 C         2.442815         0.301129         1.041610
 H         3.878651        -2.508485         1.428022
 H         4.835914        -2.251555        -0.043820
 H         4.866504        -1.108884         1.414952
 H        -0.437137        -0.930170         0.412755
 H        -0.384664         0.880071         0.535423
 H        -0.483200         0.147508        -1.083644
 H         2.040788         0.785159        -2.090743
 H         1.688622         1.941602        -0.896589
 H         4.652284         2.133172         0.341338
 H         2.541762         0.770313         2.076941
