19
Iteration:  3508
 C         4.309919        -1.720917         0.752878
 C         3.132839        -0.889628         0.367580
 O         1.979332        -1.293975        -0.381088
 C         1.413787        -0.051211        -0.125274
 C        -0.104115        -0.028276        -0.103511
 C         2.191483         1.036151        -1.008954
 C         3.372113         0.643173        -0.162136
 O         4.674199         1.226862        -0.023757
 C         2.443774         0.313498         1.030844
 H         3.758083        -2.518420         1.197086
 H         4.617036        -2.215118        -0.166854
 H         5.215396        -1.413820         1.393347
 H        -0.473977        -0.992660         0.336814
 H        -0.529504         0.863254         0.452076
 H        -0.422815        -0.085166        -1.163365
 H         2.269524         0.827372        -2.061754
 H         1.834746         2.000167        -0.698176
 H         4.440780         2.081370         0.438558
 H         2.449967         0.455722         2.187347
