19
Iteration:  1737charge 0 multiplicity 1
 C         4.223779        -1.796885         0.665817
 C         3.202144        -0.761986         0.341798
 O         2.056739        -1.263329        -0.500576
 C         1.411430        -0.032173        -0.114922
 C        -0.095616        -0.045069        -0.008821
 C         2.213350         1.013546        -1.018797
 C         3.373877         0.654147        -0.013956
 O         4.635517         1.234424        -0.083756
 C         2.389007         0.238964         1.090404
 H         3.616053        -2.478642         1.344557
 H         4.789024        -2.520832         0.092121
 H         5.063350        -1.228218         1.129761
 H        -0.582859        -0.621784         0.836154
 H        -0.546200         0.942490         0.103675
 H        -0.619881        -0.368972        -0.870291
 H         2.572504         0.732569        -2.032125
 H         1.907809         2.041868        -0.820570
 H         4.714518         1.965143         0.528536
 H         2.128682         0.316846         2.187119
