19
Iteration:   712
 C         4.337250        -1.844819         0.638377
 C         3.104080        -0.879206         0.289057
 O         2.058359        -1.289650        -0.500563
 C         1.478570         0.014786        -0.069261
 C        -0.106727         0.024058        -0.053191
 C         2.143810         0.937315        -1.002855
 C         3.390509         0.681167         0.024492
 O         4.634037         1.349901        -0.009315
 C         2.381593         0.204226         1.077043
 H         4.054744        -2.958716         1.041798
 H         4.831862        -1.984173        -0.373351
 H         4.975490        -1.349239         1.372244
 H        -0.680446        -0.904584         0.273628
 H        -0.510769         0.691457         0.767387
 H        -0.475298         0.385288        -1.003017
 H         2.238689         0.546965        -2.030157
 H         1.856932         1.999044        -0.733150
 H         4.451114         2.247409         0.296044
 H         2.166030         0.276859         2.156823
