19
Iteration:   592
 C         4.431752        -1.762239         0.493554
 C         3.173944        -0.867739         0.292718
 O         2.047601        -1.361496        -0.377359
 C         1.334546         0.006751        -0.045264
 C        -0.185598         0.064449        -0.134417
 C         2.179418         1.055346        -0.972129
 C         3.431636         0.544919        -0.152580
 O         4.565207         1.233667         0.198942
 C         2.452272         0.232754         1.038002
 H         4.304921        -2.517592         1.329215
 H         4.611471        -2.289566        -0.445806
 H         5.146128        -1.045071         0.829915
 H        -0.687534        -0.199106         0.853487
 H        -0.557998         1.123447        -0.278957
 H        -0.545082        -0.463081        -1.039920
 H         2.282695         0.892113        -2.062670
 H         1.810082         2.018724        -0.530297
 H         4.383431         2.181723         0.423193
 H         2.364411         0.605073         2.001805
