19
Iteration:  1350charge 0 multiplicity 1
 C         4.187658        -1.866734         0.726441
 C         3.136922        -0.829250         0.252872
 O         2.131182        -1.314283        -0.559541
 C         1.408394         0.094318        -0.126310
 C        -0.078464        -0.001307         0.028956
 C         2.220494         1.002938        -0.992374
 C         3.387785         0.704568        -0.045482
 O         4.612866         1.374199        -0.032365
 C         2.364014         0.115239         1.087578
 H         3.846944        -2.537184         1.453301
 H         4.467184        -2.373653        -0.209186
 H         5.000316        -1.412823         1.185827
 H        -0.308450        -0.872289         0.689905
 H        -0.293277         0.913949         0.588330
 H        -0.751481        -0.220000        -0.823418
 H         2.282854         0.587374        -2.020889
 H         1.933750         2.043212        -1.127126
 H         4.708796         1.665026         0.876979
 H         2.420609         0.181978         2.122723
