19
Iteration:  1449charge 0 multiplicity 1
 C         4.328382        -1.712463         0.567117
 C         3.056641        -0.806284         0.422364
 O         2.076549        -1.288702        -0.460893
 C         1.367987         0.014026        -0.120081
 C        -0.054631        -0.020201        -0.090820
 C         2.210766         0.988635        -0.958803
 C         3.365977         0.685837         0.049229
 O         4.733607         1.124163        -0.019687
 C         2.247580         0.231203         1.074432
 H         4.094909        -2.619396         1.095104
 H         4.611365        -1.701381        -0.533974
 H         5.186510        -1.230429         1.012212
 H        -0.331153        -0.678225         0.798551
 H        -0.539034         0.913387         0.417206
 H        -0.607557        -0.320954        -1.054879
 H         2.332636         0.742969        -2.026367
 H         1.908876         2.100375        -0.949932
 H         4.774832         2.108897        -0.124057
 H         2.066993         0.304924         2.195358
