19
Iteration:   578
 C         4.394236        -1.749209         0.481391
 C         3.253474        -0.869529         0.344602
 O         2.055136        -1.406829        -0.373569
 C         1.372938        -0.023499        -0.185956
 C        -0.210359         0.105789        -0.125773
 C         2.232534         0.977590        -0.966779
 C         3.282945         0.650085        -0.023029
 O         4.544233         1.197188         0.167242
 C         2.447386         0.313989         1.079710
 H         4.230039        -2.609510         1.050073
 H         4.572499        -2.122851        -0.650307
 H         5.487935        -1.393908         0.709237
 H        -0.619805        -0.391078         0.704118
 H        -0.421567         1.109684        -0.059196
 H        -0.592961        -0.419009        -1.024447
 H         2.144029         0.930334        -2.037296
 H         1.997064         2.046364        -0.690532
 H         4.386605         2.113255         0.409775
 H         2.676024         0.781311         2.107274
