19
Iteration:  4158charge 0 multiplicity 1
 C         4.160526        -1.724715         0.737690
 C         3.142945        -0.811182         0.384211
 O         2.022049        -1.307222        -0.517463
 C         1.393477        -0.009083        -0.118556
 C        -0.096180        -0.186082        -0.009230
 C         2.310526         1.088547        -0.985934
 C         3.417534         0.731565        -0.032522
 O         4.777580         1.259858        -0.129863
 C         2.261208         0.203568         1.134535
 H         3.936898        -2.345277         1.615327
 H         4.283859        -2.512108        -0.002918
 H         5.144825        -1.149163         0.723780
 H        -0.360344        -0.781234         0.907387
 H        -0.691552         0.777880        -0.186923
 H        -0.415690        -0.733777        -0.916758
 H         2.350224         0.885161        -2.058651
 H         1.793208         2.055884        -0.748990
 H         4.783891         2.238661         0.060161
 H         2.037765         0.374409         2.096532
