19
Iteration:  4478
 C         4.168586        -1.696999         0.805633
 C         3.182993        -0.899963         0.286273
 O         2.021998        -1.304388        -0.490247
 C         1.451326        -0.031087        -0.039359
 C        -0.071675        -0.101293        -0.081127
 C         2.193290         1.116541        -0.982340
 C         3.384617         0.671182        -0.140957
 O         4.652777         1.276855        -0.010228
 C         2.461957         0.158139         1.090713
 H         3.611286        -2.535000         1.306908
 H         4.859725        -2.035116        -0.134451
 H         4.811912        -1.229255         1.552575
 H        -0.569755        -0.513497         0.802432
 H        -0.423724         0.962144        -0.058413
 H        -0.569653        -0.593012        -1.042637
 H         2.143473         1.129894        -2.091186
 H         1.646810         1.949513        -0.557644
 H         4.742059         1.913375        -0.720780
 H         2.435321         0.353403         2.143029
