19
Iteration:   913charge 0 multiplicity 1
 C         4.297102        -1.693372         0.553955
 C         3.136937        -0.784827         0.338877
 O         2.118373        -1.249668        -0.508694
 C         1.407651         0.010969        -0.126539
 C        -0.064857        -0.022107        -0.026591
 C         2.192559         0.927847        -1.018068
 C         3.294739         0.675144         0.033157
 O         4.598696         1.126915         0.063235
 C         2.353727         0.236221         1.128888
 H         3.971557        -2.636210         0.932683
 H         4.766321        -1.896593        -0.425037
 H         5.172515        -1.244408         1.085931
 H        -0.489169        -0.978445         0.237683
 H        -0.283956         0.710562         0.705446
 H        -0.462404         0.398388        -0.979313
 H         2.224481         0.546740        -2.047513
 H         2.002272         1.960792        -1.080875
 H         4.617197         2.056935         0.337239
 H         2.323276         0.407065         2.217605
