19
Iteration:   121
 C         4.179531        -1.991173         0.708541
 C         3.247568        -0.878312         0.256156
 O         2.068004        -1.289927        -0.573229
 C         1.471987         0.058352        -0.168325
 C        -0.036293        -0.007741         0.115945
 C         2.210582         1.068347        -1.107571
 C         3.372762         0.652826        -0.055329
 O         4.500917         1.477174         0.148455
 C         2.384278         0.163839         1.057758
 H         3.787452        -2.877189         1.161135
 H         4.642889        -2.262069        -0.194649
 H         4.918566        -1.552842         1.377468
 H        -0.246884        -0.727487         0.876032
 H        -0.387756         0.942294         0.346608
 H        -0.631683        -0.312966        -0.723768
 H         2.229397         0.993508        -2.174920
 H         1.996654         2.100976        -0.788200
 H         5.291709         1.166667        -0.389033
 H         2.060466         0.314233         2.076464
