19
Iteration:  3374
 C         4.301843        -1.754995         0.580304
 C         3.125790        -0.777654         0.406489
 O         1.961207        -1.286237        -0.300287
 C         1.438401         0.041773        -0.193692
 C        -0.067362        -0.074655        -0.174627
 C         2.299511         0.992584        -0.939932
 C         3.356806         0.651974        -0.024148
 O         4.615613         1.149383        -0.046408
 C         2.377655         0.279225         1.107523
 H         4.071860        -2.488136         1.402076
 H         4.609147        -2.197029        -0.402327
 H         5.196959        -1.202760         0.845371
 H        -0.511200        -0.404493         0.779141
 H        -0.618878         0.970966        -0.331303
 H        -0.355366        -0.688945        -1.012113
 H         2.460686         0.774711        -2.003285
 H         1.834869         1.921109        -0.590212
 H         4.635865         2.137125         0.045581
 H         2.184958         0.626306         2.134103
