19
Iteration:  1272charge 0 multiplicity 1
 C         4.320471        -1.692075         0.523407
 C         3.157111        -0.809296         0.328768
 O         2.027191        -1.322526        -0.433034
 C         1.374043        -0.007960        -0.157671
 C        -0.088159        -0.004056        -0.123347
 C         2.273663         0.986374        -0.893929
 C         3.361759         0.721202         0.169584
 O         4.667056         1.166963        -0.097688
 C         2.301276         0.215371         1.166021
 H         3.892080        -2.548461         0.905095
 H         4.798016        -2.093020        -0.361701
 H         5.085856        -1.374170         1.201786
 H        -0.558074        -0.906042         0.361936
 H        -0.558844         0.773462         0.414123
 H        -0.605864         0.238356        -1.081792
 H         2.579169         0.518083        -1.893684
 H         2.051230         2.001955        -0.952255
 H         4.453790         2.129059        -0.063332
 H         2.086214         0.395223         2.268063
