19
Iteration:   973charge 0 multiplicity 1
 C         4.234377        -1.842849         0.632412
 C         3.156733        -0.868912         0.323551
 O         2.141441        -1.275641        -0.518377
 C         1.420061         0.029681        -0.092591
 C        -0.092100        -0.029436        -0.115132
 C         2.117968         1.082226        -0.917361
 C         3.294462         0.742076         0.008724
 O         4.596013         1.255037        -0.013586
 C         2.554773         0.125630         1.121973
 H         3.983992        -2.614620         1.452143
 H         4.316460        -2.356083        -0.320862
 H         5.142311        -1.358380         0.951626
 H        -0.704910        -0.485814         0.713543
 H        -0.490118         1.051127        -0.387729
 H        -0.409983        -0.714452        -0.944786
 H         2.095049         0.767823        -1.970908
 H         1.718301         2.104850        -0.601639
 H         4.669900         2.145227         0.424270
 H         2.382246         0.491866         2.113041
