19
Iteration:  1893charge 0 multiplicity 1
 C         4.190278        -1.819010         0.774640
 C         3.210033        -0.840331         0.220020
 O         2.141408        -1.232183        -0.499073
 C         1.367616         0.019820        -0.173479
 C        -0.088647        -0.008724         0.034934
 C         2.243987         1.050757        -0.953181
 C         3.336548         0.627842        -0.065559
 O         4.595336         1.256427        -0.100576
 C         2.385434         0.154857         1.082392
 H         3.521242        -2.479328         1.450501
 H         4.890288        -2.279115         0.057173
 H         4.729270        -1.354710         1.588325
 H        -0.205521        -0.736702         0.798846
 H        -0.486765         0.916382         0.449959
 H        -0.649264        -0.233795        -0.899968
 H         2.346154         0.811798        -2.050552
 H         2.031850         2.101292        -0.956545
 H         4.630064         2.122621         0.404950
 H         2.396063         0.085196         2.158634
