19
Iteration:   857
 C         4.266794        -1.831589         0.666947
 C         3.218037        -0.850299         0.166188
 O         1.951124        -1.244659        -0.504971
 C         1.375014         0.011950         0.004573
 C        -0.055465        -0.026969        -0.069545
 C         2.228080         1.018303        -0.936352
 C         3.393059         0.612162        -0.140618
 O         4.596845         1.360303         0.043539
 C         2.481454         0.111039         1.106705
 H         3.717520        -2.595310         1.332778
 H         4.991703        -2.163627        -0.076694
 H         4.661561        -1.224732         1.539575
 H        -0.434147        -0.917074         0.358207
 H        -0.575317         0.795701         0.415548
 H        -0.247193        -0.156854        -1.151239
 H         2.161766         0.693913        -2.000235
 H         1.947717         1.982816        -0.573727
 H         4.277506         2.248793         0.368518
 H         2.580050         0.514779         2.046820
