19
Iteration:  3899
 C         4.393781        -1.707124         0.691372
 C         3.163742        -0.875487         0.391521
 O         1.970755        -1.353551        -0.381997
 C         1.403283        -0.010972        -0.149710
 C        -0.062175         0.014114        -0.064848
 C         2.238005         0.969890        -1.064714
 C         3.312896         0.675647        -0.043780
 O         4.643746         1.247362        -0.062433
 C         2.301442         0.248538         1.069453
 H         4.087717        -2.646205         1.102377
 H         4.868052        -1.911740        -0.282954
 H         5.093696        -1.107044         1.254233
 H        -0.297468        -0.778513         0.669910
 H        -0.346384         1.070501         0.219933
 H        -0.646389        -0.128574        -0.905253
 H         2.393171         0.622044        -2.054852
 H         1.958746         1.986244        -1.125387
 H         4.640669         1.884721         0.708739
 H         2.132162         0.490743         2.028798
