19
Iteration:  4643charge 0 multiplicity 1
 C         4.115699        -1.807259         0.764489
 C         3.171732        -0.801948         0.373808
 O         2.079148        -1.267171        -0.516892
 C         1.416790         0.051351        -0.081317
 C        -0.041606        -0.148600        -0.063817
 C         2.183696         1.047963        -0.890583
 C         3.407815         0.615357        -0.135920
 O         4.579785         1.388582        -0.153874
 C         2.455962         0.231017         1.161666
 H         3.519285        -2.637177         1.068393
 H         4.823239        -2.123104        -0.086946
 H         4.767042        -1.524497         1.606062
 H        -0.428538        -0.894327         0.584236
 H        -0.401331         0.853421         0.272857
 H        -0.255634        -0.405051        -1.187777
 H         2.216650         0.956756        -1.996571
 H         1.956611         2.051068        -0.540392
 H         5.155636         0.593003        -0.312539
 H         2.312923         0.509374         2.237663
