19
Iteration:    12
 C         4.333792        -1.781609         0.521521
 C         3.214465        -0.815677         0.185452
 O         1.976469        -1.255749        -0.471057
 C         1.398682         0.015403        -0.081752
 C        -0.060496        -0.036435        -0.062574
 C         2.163877         0.971531        -0.970513
 C         3.325075         0.702768         0.061713
 O         4.698106         1.270948         0.127850
 C         2.347512         0.232986         1.148698
 H         3.745940        -2.379309         1.233985
 H         4.731457        -2.473173        -0.187456
 H         5.060153        -1.288531         1.159462
 H        -0.397619        -0.878753         0.525698
 H        -0.564294         0.885564         0.162224
 H        -0.228970        -0.283625        -1.128729
 H         2.193057         0.781297        -2.038767
 H         1.771928         1.961906        -0.740070
 H         4.989734         1.091501        -0.774627
 H         1.963438         0.443985         2.115819
