19
Iteration:  4752
 C         4.356149        -1.749895         0.576636
 C         3.235412        -0.851488         0.225316
 O         1.950491        -1.433463        -0.392870
 C         1.417835        -0.008890        -0.037538
 C        -0.040066         0.111520        -0.088967
 C         2.160176         0.918089        -1.032396
 C         3.347014         0.580254        -0.026957
 O         4.578234         1.405077         0.129261
 C         2.378641         0.237808         1.085776
 H         4.131327        -1.972087         1.558768
 H         4.601321        -2.627340        -0.040121
 H         5.147884        -0.970507         0.681984
 H        -0.528523        -0.671467         0.488339
 H        -0.189168         1.125804         0.332470
 H        -0.350774         0.206444        -1.186674
 H         2.297201         0.723960        -2.127629
 H         1.698064         1.921601        -0.875171
 H         5.005764         0.919671        -0.634272
 H         2.190927         0.511132         2.066008
