19
Iteration:  2841charge 0 multiplicity 1
 C         4.258710        -1.689299         0.470302
 C         3.187664        -0.827075         0.349715
 O         1.978367        -1.383390        -0.302097
 C         1.447215         0.003791        -0.120872
 C        -0.092878         0.042798        -0.120973
 C         2.240532         0.924532        -1.036269
 C         3.379791         0.689598        -0.011356
 O         4.620544         1.224913         0.047648
 C         2.431099         0.233070         1.111991
 H         3.902745        -2.496635         1.119955
 H         4.637787        -2.099740        -0.461488
 H         4.944110        -1.263745         1.177147
 H        -0.482745        -0.587542         0.644767
 H        -0.406447         1.117156        -0.031172
 H        -0.521017        -0.332584        -1.066407
 H         2.454099         0.694607        -2.059440
 H         1.739777         1.900667        -1.094181
 H         4.501590         2.129330         0.412785
 H         2.156107         0.502221         2.183347
