19
Iteration:  2698charge 0 multiplicity 1
 C         4.204643        -1.846307         0.676953
 C         3.230313        -0.852032         0.320485
 O         2.026848        -1.266719        -0.386866
 C         1.349609        -0.013031        -0.035356
 C        -0.095583        -0.078092        -0.101144
 C         2.144033         1.089637        -1.033877
 C         3.396083         0.697794        -0.138145
 O         4.666864         1.210853         0.001523
 C         2.455264         0.268176         1.045801
 H         3.799294        -2.804782         0.944422
 H         4.955018        -2.003129        -0.089043
 H         4.784533        -1.568324         1.618788
 H        -0.384800        -0.756822         0.731635
 H        -0.558458         0.962105         0.148927
 H        -0.482449        -0.430144        -1.026288
 H         2.239845         1.026942        -2.164455
 H         1.782378         2.155122        -0.749117
 H         4.628896         2.119211         0.341591
 H         2.656116         0.560673         2.048155
