19
Iteration:  4266
 C         4.237072        -1.786044         0.599916
 C         3.137612        -0.830295         0.372651
 O         2.122606        -1.275247        -0.384033
 C         1.455265        -0.064411        -0.151418
 C        -0.131241        -0.011435        -0.048160
 C         2.230669         0.910845        -1.079237
 C         3.332234         0.612893        -0.052617
 O         4.640593         1.312969        -0.046091
 C         2.374974         0.351641         1.101587
 H         3.912932        -2.782829         0.995768
 H         5.044972        -1.757424        -0.131708
 H         4.792995        -1.408824         1.585110
 H        -0.630152        -0.562911         0.798872
 H        -0.491807         1.003257         0.358909
 H        -0.494390        -0.260451        -1.032230
 H         2.149500         0.468700        -2.047733
 H         1.820479         1.916068        -0.952756
 H         4.861752         1.667653         0.814126
 H         1.920398         0.480499         2.031693
