19
Iteration:   168charge 0 multiplicity 1
 C         4.178133        -1.775444         0.647514
 C         3.236001        -0.805783         0.197721
 O         2.080577        -1.257127        -0.474638
 C         1.375296         0.039982        -0.079444
 C        -0.100861        -0.092080        -0.056130
 C         2.118603         1.066654        -0.973747
 C         3.382442         0.677094        -0.085278
 O         4.673452         1.277401         0.155576
 C         2.423169         0.177019         1.063338
 H         3.522001        -2.450427         1.283791
 H         4.680048        -2.407018        -0.027163
 H         4.917748        -1.401532         1.426976
 H        -0.348417        -0.967545         0.539884
 H        -0.527841         0.818794         0.347515
 H        -0.560123        -0.216249        -1.090354
 H         2.145076         0.763579        -2.053389
 H         1.824666         2.149497        -0.875731
 H         5.075641         1.360239        -0.728463
 H         2.587068         0.149105         2.176627
