19
Iteration:   241charge 0 multiplicity 1
 C         4.349537        -1.804588         0.531152
 C         3.173962        -0.909112         0.198899
 O         1.967213        -1.299877        -0.372158
 C         1.336890        -0.008779        -0.063691
 C        -0.105522         0.008622        -0.113416
 C         2.208919         1.014156        -0.971913
 C         3.348570         0.673529        -0.003035
 O         4.585951         1.370361         0.109059
 C         2.460682         0.206450         1.059734
 H         4.025970        -2.634024         1.152162
 H         4.832678        -2.348660        -0.298196
 H         5.170816        -1.290091         1.071334
 H        -0.708598        -0.584969         0.529194
 H        -0.247632         1.043706        -0.022810
 H        -0.351333        -0.131060        -1.193237
 H         2.348241         0.580793        -1.907880
 H         1.791092         2.022068        -1.100315
 H         5.228647         0.957110         0.676147
 H         2.504777         0.663580         2.113499
