19
Iteration:  4995charge 0 multiplicity 1
 C         4.256020        -1.865119         0.774455
 C         3.222380        -0.903229         0.265308
 O         2.057691        -1.318352        -0.561550
 C         1.461978        -0.009044        -0.127259
 C        -0.107882         0.070603        -0.034857
 C         2.197836         1.107516        -0.968491
 C         3.408179         0.653750        -0.055265
 O         4.551621         1.423039        -0.016834
 C         2.331619         0.077589         1.087367
 H         4.001342        -1.896525         1.892829
 H         4.038084        -2.771933         0.176853
 H         5.322028        -1.412278         0.669213
 H        -0.266963        -0.853672         0.635447
 H        -0.335861         0.971052         0.585846
 H        -0.632528        -0.010027        -0.903912
 H         2.375902         1.132887        -2.077910
 H         1.778250         2.060621        -0.505694
 H         5.333962         0.940134        -0.187370
 H         2.123834         0.149771         2.122374
