19
Iteration:  2268
 C         4.254401        -1.802763         0.659956
 C         3.185743        -0.810784         0.363137
 O         2.072441        -1.234906        -0.455998
 C         1.432050         0.043253        -0.147836
 C        -0.115254        -0.015249        -0.055158
 C         2.251907         0.943984        -0.980720
 C         3.356789         0.722834         0.089456
 O         4.635378         1.214532        -0.192180
 C         2.320620         0.146563         1.171007
 H         3.767227        -2.620138         1.155857
 H         4.853160        -2.208024        -0.148801
 H         4.873805        -1.313154         1.460613
 H        -0.536040        -0.731056         0.749452
 H        -0.518076         0.939701         0.229056
 H        -0.567602        -0.146806        -1.104602
 H         2.348061         0.569365        -1.953830
 H         2.043722         2.010488        -1.054607
 H         4.701185         2.165115         0.073214
 H         2.208422         0.488450         2.219479
