19
Iteration:   664charge 0 multiplicity 1
 C         4.184938        -1.934481         0.753707
 C         3.126841        -0.806053         0.289476
 O         2.052875        -1.232400        -0.556398
 C         1.466394         0.024929        -0.132464
 C        -0.000742        -0.159404        -0.000501
 C         2.086775         1.162386        -0.907230
 C         3.417970         0.702824        -0.137707
 O         4.686587         1.240933         0.014014
 C         2.405945         0.270647         1.030182
 H         3.733137        -2.732470         1.217451
 H         4.748261        -2.307835        -0.146592
 H         4.850090        -1.474700         1.545261
 H        -0.138638        -1.109086         0.455587
 H        -0.538329         0.464557         0.646694
 H        -0.468319        -0.185313        -1.012411
 H         1.957228         0.958661        -1.941305
 H         1.755773         2.069707        -0.456143
 H         4.524786         2.213302        -0.021294
 H         2.225382         0.404904         2.094702
