19
Iteration:  1770charge 0 multiplicity 1
 C         4.328742        -1.651356         0.599469
 C         3.168164        -0.881057         0.287638
 O         1.965143        -1.332205        -0.374554
 C         1.359951         0.016997        -0.066541
 C        -0.125373         0.005307        -0.169521
 C         2.177763         1.063374        -0.958757
 C         3.345162         0.539634        -0.135526
 O         4.653432         1.150518         0.086203
 C         2.515261         0.267920         1.066792
 H         4.159473        -2.121676         1.629039
 H         4.556017        -2.358405        -0.210519
 H         5.089492        -0.961822         0.983747
 H        -0.502349        -0.659125         0.667488
 H        -0.563392         0.994821        -0.118650
 H        -0.389456        -0.585592        -1.008950
 H         2.249747         1.077137        -2.076475
 H         1.910666         2.061665        -0.614654
 H         4.546401         2.120782         0.219627
 H         2.539914         0.562113         2.119019
