19
Iteration:   680charge 0 multiplicity 1
 C         4.126248        -1.812614         0.699443
 C         3.217864        -0.832356         0.156265
 O         2.026926        -1.267252        -0.466863
 C         1.441056         0.021760        -0.072611
 C        -0.103472        -0.184167        -0.023404
 C         2.231007         1.110501        -0.961064
 C         3.362754         0.692875        -0.057192
 O         4.594132         1.264704         0.037511
 C         2.536670         0.193873         1.061469
 H         3.413744        -2.731620         1.069215
 H         4.916503        -2.253041         0.033996
 H         4.702657        -1.368968         1.510709
 H        -0.273513        -1.286780         0.227744
 H        -0.639550         0.633047         0.613644
 H        -0.633926         0.173613        -0.905454
 H         2.372722         1.132028        -2.096739
 H         1.903614         2.179175        -0.696649
 H         4.599996         2.236072        -0.159106
 H         2.688903         0.609868         2.093286
