19
Iteration:  2341charge 0 multiplicity 1
 C         4.273420        -1.733938         0.650351
 C         3.146565        -0.851983         0.309068
 O         2.058321        -1.281628        -0.453460
 C         1.390638         0.042159        -0.096015
 C        -0.123613         0.012806         0.017914
 C         2.191930         0.947650        -1.051007
 C         3.384814         0.582398        -0.055765
 O         4.678799         1.229340         0.016075
 C         2.401343         0.256862         1.060009
 H         3.934000        -2.511584         1.312890
 H         4.482542        -2.237303        -0.286049
 H         5.141371        -1.123815         1.024181
 H        -0.468857        -0.610343         0.737384
 H        -0.590846         0.974401         0.215257
 H        -0.502807        -0.260886        -0.979517
 H         2.259126         0.536571        -2.119009
 H         1.973862         2.024449        -1.106442
 H         4.432740         1.983108         0.542750
 H         2.299761         0.550887         2.099593
