19
Iteration:  4315charge 0 multiplicity 1
 C         4.184560        -1.762815         0.774969
 C         3.126971        -0.853778         0.291213
 O         2.055730        -1.243848        -0.486561
 C         1.388267         0.008677        -0.024282
 C        -0.073191        -0.152151        -0.026361
 C         2.187793         1.067478        -0.952463
 C         3.383860         0.600785        -0.185339
 O         4.682796         1.257032        -0.004264
 C         2.422000         0.195975         0.996600
 H         3.970898        -2.457913         1.575660
 H         4.872727        -2.085025        -0.042969
 H         4.878243        -1.107843         1.232882
 H        -0.639414        -0.367405         0.853201
 H        -0.388972         0.845841        -0.245829
 H        -0.279180        -0.782900        -0.946232
 H         2.279752         1.052895        -2.079325
 H         1.940502         2.066105        -0.560012
 H         4.547934         2.248609         0.062218
 H         2.290379         0.682522         1.965671
