19
Iteration:  2365
 C         4.234427        -1.899030         0.672622
 C         3.182161        -0.815184         0.401022
 O         2.037484        -1.274822        -0.460605
 C         1.431214        -0.029357        -0.212005
 C        -0.039390        -0.021827         0.024957
 C         2.319783         1.057983        -1.014887
 C         3.351794         0.660292         0.035242
 O         4.615542         1.295730        -0.130181
 C         2.286049         0.210548         1.113238
 H         3.860371        -2.501029         1.460217
 H         4.218774        -2.539172        -0.196219
 H         5.211289        -1.409349         0.906701
 H        -0.299720        -0.626975         0.863433
 H        -0.408262         0.935306         0.259168
 H        -0.655357        -0.343145        -0.898498
 H         2.443426         0.868578        -2.124304
 H         2.031182         2.144278        -0.920150
 H         4.469573         2.261846         0.092988
 H         2.221656         0.475873         2.220643
