19
Iteration:   635
 C         4.179383        -1.803173         0.661962
 C         3.158665        -0.770062         0.230223
 O         2.170780        -1.226102        -0.563112
 C         1.424302        -0.032727        -0.114612
 C        -0.195078        -0.121217         0.023661
 C         2.290511         1.101932        -0.900917
 C         3.359362         0.714154         0.031431
 O         4.632231         1.215362        -0.083912
 C         2.365616         0.157422         1.092888
 H         3.739109        -2.532824         1.437726
 H         4.598754        -2.448246        -0.172820
 H         4.978094        -1.210842         1.140168
 H        -0.497939        -0.717287         0.929943
 H        -0.674275         0.881595         0.068026
 H        -0.717109        -0.509996        -0.862352
 H         2.476637         0.816502        -1.955169
 H         2.024953         2.214022        -0.727572
 H         4.699826         1.998028         0.522699
 H         2.268058         0.289731         2.123038
