19
Iteration:  2931
 C         4.182092        -1.859590         0.769573
 C         3.221613        -0.833413         0.336207
 O         2.088682        -1.336442        -0.495175
 C         1.398243        -0.014103        -0.130048
 C        -0.102094        -0.087128        -0.027731
 C         2.211005         1.106561        -0.948283
 C         3.363050         0.690058        -0.054685
 O         4.650774         1.278333        -0.119793
 C         2.412628         0.262822         1.017215
 H         3.607136        -2.537955         1.413511
 H         4.682781        -2.409745        -0.048211
 H         4.851893        -1.418858         1.447830
 H        -0.351335        -0.873260         0.636314
 H        -0.427044         0.827470         0.385909
 H        -0.632753        -0.032978        -1.049735
 H         2.095131         1.046384        -2.023200
 H         1.821201         2.099737        -0.612244
 H         4.526705         1.995996         0.580656
 H         2.494629         0.610834         2.007446
