19
Iteration:   392charge 0 multiplicity 1
 C         4.376463        -1.786847         0.487198
 C         3.180729        -0.869989         0.367035
 O         1.965775        -1.257062        -0.457560
 C         1.364829        -0.020657        -0.051167
 C        -0.138455         0.003282        -0.137588
 C         2.203901         0.933435        -0.985027
 C         3.371063         0.667859        -0.034315
 O         4.628742         1.237352         0.104761
 C         2.454064         0.281311         1.125842
 H         4.271203        -2.503660         1.211351
 H         4.728396        -2.161359        -0.497406
 H         5.198557        -1.150259         0.861861
 H        -0.740936        -0.624011         0.496856
 H        -0.430553         1.015181         0.177101
 H        -0.385302        -0.173932        -1.211036
 H         2.234235         0.570494        -2.018475
 H         1.740873         1.948254        -1.037059
 H         4.527298         2.035302         0.619632
 H         2.323118         0.419113         2.241193
