19
Iteration:  2649charge 0 multiplicity 1
 C         4.269806        -1.676917         0.509485
 C         3.141954        -0.899488         0.368524
 O         1.980801        -1.399127        -0.351460
 C         1.396808        -0.053320        -0.147253
 C        -0.055412         0.101148        -0.032312
 C         2.302667         0.949234        -1.024923
 C         3.353381         0.748644        -0.043461
 O         4.641406         1.239205        -0.015369
 C         2.368160         0.175052         1.162234
 H         4.080682        -2.701556         0.932665
 H         4.937950        -1.801605        -0.384208
 H         4.906973        -1.300014         1.262973
 H        -0.655306        -0.408338         0.760184
 H        -0.266640         1.127907        -0.011648
 H        -0.613158        -0.092602        -1.059329
 H         2.539990         0.570287        -1.984854
 H         2.043597         1.954311        -1.137858
 H         4.572062         2.188196         0.276600
 H         1.901022         0.444053         2.170114
