19
Iteration:  1538charge 0 multiplicity 1
 C         4.163487        -1.912716         0.691181
 C         3.164955        -0.905400         0.358629
 O         2.082807        -1.293002        -0.475069
 C         1.438717         0.033424        -0.141043
 C        -0.045739        -0.032072         0.002503
 C         2.272695         1.028524        -1.055404
 C         3.333110         0.694978        -0.027802
 O         4.597393         1.394819        -0.076227
 C         2.420466         0.193941         1.080316
 H         3.686726        -2.593526         1.371980
 H         4.447815        -2.484775        -0.237376
 H         4.972492        -1.616638         1.372617
 H        -0.286539        -0.829869         0.760620
 H        -0.380906         0.994907         0.515302
 H        -0.616235        -0.313079        -0.866148
 H         2.448529         0.884969        -2.098119
 H         1.933855         2.130835        -0.932924
 H         4.533733         2.266394         0.400840
 H         2.140747         0.290387         2.082704
