19
Iteration:  3603
 C         4.279173        -1.765961         0.739005
 C         3.093058        -0.883043         0.351551
 O         2.008093        -1.312083        -0.440673
 C         1.369584         0.002478        -0.136655
 C        -0.063641         0.001073        -0.010591
 C         2.230801         0.991683        -1.099563
 C         3.414924         0.613787        -0.127509
 O         4.624288         1.317768         0.038247
 C         2.429420         0.191184         1.052170
 H         4.174049        -2.472519         1.575618
 H         4.627961        -2.295925        -0.159015
 H         5.112885        -1.015567         0.951136
 H        -0.385684        -0.480393         0.913337
 H        -0.355351         1.110437        -0.005489
 H        -0.422896        -0.567678        -0.840695
 H         2.408062         0.735172        -2.201722
 H         1.929468         2.063801        -0.928409
 H         4.192022         2.146586         0.229493
 H         2.291686         0.429573         2.140067
