19
Iteration:  3387
 C         4.241401        -1.699262         0.613827
 C         3.177167        -0.834720         0.395254
 O         2.009422        -1.330203        -0.320308
 C         1.360852        -0.006201        -0.038174
 C        -0.100519        -0.049054        -0.213871
 C         2.185469         1.065107        -1.030198
 C         3.403838         0.668572        -0.060663
 O         4.699426         1.167014        -0.026123
 C         2.419834         0.287566         1.120400
 H         3.929106        -2.514713         1.222171
 H         4.263416        -2.184465        -0.354798
 H         5.248048        -1.347272         0.975300
 H        -0.483567        -0.522800         0.746139
 H        -0.559380         1.034580        -0.461273
 H        -0.348739        -0.823381        -0.919058
 H         2.309235         0.786296        -2.077181
 H         1.953064         2.133930        -1.052395
 H         4.542243         2.056302         0.343672
 H         2.282804         0.369497         2.146438
