19
Iteration:  4881
 C         4.295280        -1.665622         0.661550
 C         3.217793        -0.868613         0.177586
 O         1.966039        -1.381422        -0.499435
 C         1.434319        -0.070520        -0.134337
 C        -0.101817         0.182252         0.059449
 C         2.231362         0.889626        -0.993027
 C         3.370546         0.676022        -0.032392
 O         4.525993         1.359831         0.114549
 C         2.428061         0.127100         1.037179
 H         3.991038        -2.722796         0.858001
 H         5.109733        -1.817027        -0.199717
 H         4.775277        -1.293623         1.619623
 H        -0.566072        -0.147336         0.948836
 H        -0.358922         1.217982        -0.095563
 H        -0.668144        -0.507900        -0.676255
 H         2.573480         0.751079        -2.056565
 H         1.791911         1.903967        -0.869782
 H         5.269981         0.893400        -0.284292
 H         2.425289         0.390186         2.061057
