19
Iteration:  3592charge 0 multiplicity 1
 C         4.331513        -1.754764         0.695888
 C         3.161987        -0.895046         0.339338
 O         1.911784        -1.311759        -0.441160
 C         1.442711        -0.063290        -0.118200
 C        -0.079460        -0.021971        -0.027090
 C         2.307326         0.936746        -1.014584
 C         3.363514         0.637785        -0.078727
 O         4.610991         1.305736         0.053135
 C         2.379641         0.305071         0.962514
 H         4.082061        -2.420196         1.548308
 H         4.624047        -2.400214        -0.147974
 H         5.204354        -1.105934         1.033845
 H        -0.519342        -0.388131         0.897816
 H        -0.471633         1.046735        -0.199229
 H        -0.550387        -0.502344        -0.863534
 H         2.177582         0.902320        -2.136190
 H         1.866958         1.919433        -0.689902
 H         4.682923         2.261443         0.095650
 H         2.381425         0.605710         2.017374
