19
Iteration:   663
 C         4.194576        -1.933877         0.758354
 C         3.123013        -0.796376         0.301197
 O         2.053417        -1.228788        -0.563643
 C         1.474976         0.023023        -0.135918
 C        -0.001948        -0.156909         0.000818
 C         2.080990         1.160834        -0.903727
 C         3.424340         0.700055        -0.140265
 O         4.694147         1.240455         0.009688
 C         2.390308         0.259882         1.028518
 H         3.726937        -2.729477         1.196560
 H         4.706667        -2.307515        -0.128490
 H         4.883637        -1.508332         1.526617
 H        -0.098513        -1.106895         0.475644
 H        -0.588846         0.501356         0.628073
 H        -0.504525        -0.191453        -0.999434
 H         1.931137         0.957093        -1.954029
 H         1.747227         2.056437        -0.460723
 H         4.523161         2.221438        -0.000001
 H         2.216097         0.409592         2.120344
