19
Iteration:  2814charge 0 multiplicity 1
 C         4.397530        -1.795205         0.514029
 C         3.220414        -0.916983         0.464910
 O         1.993603        -1.246766        -0.429319
 C         1.405226         0.046375        -0.067327
 C        -0.176765         0.087532        -0.115275
 C         2.245373         0.851254        -1.043116
 C         3.387177         0.611285         0.029480
 O         4.578684         1.284722        -0.014816
 C         2.378705         0.277081         1.120729
 H         4.213456        -2.604916         1.262935
 H         4.462952        -2.279181        -0.477684
 H         5.314413        -1.257527         0.874053
 H        -0.577691        -0.747760         0.580203
 H        -0.601820         1.089056         0.093682
 H        -0.472417        -0.130376        -1.176397
 H         2.487501         0.460200        -2.056997
 H         1.947843         1.902843        -1.135898
 H         4.471144         1.902281         0.734794
 H         2.037362         0.685823         2.028761
