19
Iteration:  4450
 C         4.362546        -1.729839         0.779797
 C         3.249599        -0.857876         0.340406
 O         2.023296        -1.327680        -0.547115
 C         1.386049         0.085239        -0.123163
 C        -0.165220         0.003288        -0.019290
 C         2.300960         0.950522        -1.019410
 C         3.343128         0.667797         0.002366
 O         4.599664         1.228772        -0.056017
 C         2.321912         0.201428         1.053845
 H         3.843552        -2.565186         1.204841
 H         4.807539        -2.024130        -0.082473
 H         5.053491        -1.382541         1.572437
 H        -0.281200        -0.775389         0.741647
 H        -0.605590         0.929114         0.394135
 H        -0.651126        -0.211762        -0.906195
 H         2.440772         0.671855        -2.079639
 H         1.826800         1.957732        -0.920616
 H         4.523438         2.215342        -0.153498
 H         2.220043         0.480629         2.156493
