19
Iteration:  1886
 C         4.165623        -1.813264         0.780266
 C         3.245230        -0.799890         0.229902
 O         2.093189        -1.281644        -0.567200
 C         1.389641         0.040590        -0.109081
 C        -0.070980        -0.002420         0.019507
 C         2.174145         0.992782        -0.961673
 C         3.426755         0.625824        -0.056620
 O         4.608262         1.265515        -0.075843
 C         2.392127         0.189779         1.026836
 H         3.658565        -2.510870         1.360685
 H         4.892927        -2.354001         0.193994
 H         4.724726        -1.310918         1.625196
 H        -0.350330        -0.779216         0.747747
 H        -0.461073         0.944802         0.459934
 H        -0.727631        -0.272125        -0.827981
 H         2.176346         0.798220        -2.014274
 H         2.051643         2.105394        -0.694949
 H         4.422729         2.035342         0.518650
 H         2.454674         0.363639         2.209460
