19
Iteration:  4510charge 0 multiplicity 1
 C         4.253433        -1.918815         0.698243
 C         3.244853        -0.850756         0.218219
 O         2.020904        -1.186135        -0.371473
 C         1.434941         0.043698        -0.049375
 C        -0.110050        -0.157675        -0.129083
 C         2.190278         1.066803        -1.034362
 C         3.385646         0.649695        -0.033747
 O         4.557902         1.340339         0.037891
 C         2.464360         0.306865         1.092854
 H         3.715969        -2.669615         1.339786
 H         4.872301        -2.613156        -0.052219
 H         4.971466        -1.328421         1.268394
 H        -0.559608        -0.533611         0.808863
 H        -0.546222         0.859712        -0.141803
 H        -0.625757        -0.808579        -0.955039
 H         2.215575         0.896994        -2.126400
 H         1.807949         2.048376        -0.763892
 H         4.991951         1.187930        -0.860073
 H         2.266533         0.392075         2.131346
