19
Iteration:   166
 C         4.159502        -1.782901         0.654726
 C         3.235659        -0.794029         0.183104
 O         2.066166        -1.266075        -0.481359
 C         1.369077         0.026662        -0.070794
 C        -0.102197        -0.094192        -0.041433
 C         2.135990         1.072383        -0.994166
 C         3.398554         0.661908        -0.092870
 O         4.671697         1.289851         0.162730
 C         2.423760         0.184458         1.069786
 H         3.572714        -2.463854         1.289929
 H         4.707171        -2.347806         0.000406
 H         4.894840        -1.397721         1.395733
 H        -0.348695        -0.968467         0.495235
 H        -0.487248         0.763678         0.339765
 H        -0.503255        -0.254238        -1.065580
 H         2.104348         0.828471        -2.041690
 H         1.875152         2.148648        -0.805308
 H         5.095220         1.391018        -0.738422
 H         2.572120         0.199905         2.189750
