19
Iteration:  2618
 C         4.318370        -1.726456         0.621369
 C         3.190903        -0.776656         0.348900
 O         2.046959        -1.265201        -0.421004
 C         1.366961        -0.011129        -0.169804
 C        -0.119593         0.029012        -0.036002
 C         2.209715         0.955854        -1.002385
 C         3.376431         0.593573        -0.116046
 O         4.592403         1.156736         0.032100
 C         2.395304         0.232076         1.111910
 H         4.054755        -2.528315         1.389987
 H         4.642546        -2.317673        -0.268740
 H         5.185517        -1.147505         0.869946
 H        -0.504190        -0.639428         0.801812
 H        -0.297596         1.060991         0.312935
 H        -0.589652         0.059308        -1.026249
 H         2.334631         0.660897        -2.068923
 H         2.127865         2.072294        -1.000256
 H         4.462518         2.052537         0.372236
 H         2.226431         0.463629         2.201648
