19
Iteration:  4419charge 0 multiplicity 1
 C         4.291605        -1.702072         0.627503
 C         3.143432        -0.793136         0.299373
 O         2.004413        -1.376828        -0.325001
 C         1.426763        -0.012026        -0.140475
 C        -0.049139         0.018194        -0.076830
 C         2.204598         0.873023        -1.069875
 C         3.354084         0.665543        -0.075687
 O         4.612884         1.256893         0.073935
 C         2.409590         0.331933         0.973333
 H         3.922737        -2.613969         1.198892
 H         4.705080        -2.106854        -0.286603
 H         5.057180        -1.127195         1.229848
 H        -0.314171        -0.978978         0.428333
 H        -0.264068         0.862139         0.610137
 H        -0.517127         0.182081        -1.014564
 H         2.246805         0.528035        -2.099053
 H         1.648239         1.836207        -0.984456
 H         4.669831         1.815236         0.854919
 H         2.328074         0.507037         2.087678
