19
Iteration:   704charge 0 multiplicity 1
 C         4.280965        -1.829434         0.638572
 C         3.220346        -0.823239         0.290950
 O         2.014715        -1.267038        -0.496835
 C         1.355014         0.015416        -0.062191
 C        -0.158796        -0.026439        -0.046825
 C         2.178916         0.948459        -0.963429
 C         3.446673         0.648455        -0.064124
 O         4.667696         1.370821         0.019164
 C         2.418382         0.161026         1.097573
 H         3.809369        -2.797254         1.016072
 H         4.961272        -2.047187        -0.158651
 H         4.908846        -1.378030         1.409570
 H        -0.480124        -1.073428         0.147487
 H        -0.559985         0.745377         0.699112
 H        -0.619676         0.412712        -0.958012
 H         2.235760         0.553778        -2.034285
 H         1.959633         2.029330        -1.033869
 H         4.460224         2.316614         0.126557
 H         2.243580         0.013153         2.199578
