19
Iteration:  3835
 C         4.190637        -1.785047         0.791575
 C         3.093905        -0.872354         0.298712
 O         2.021488        -1.286487        -0.464590
 C         1.404684         0.007797        -0.091689
 C        -0.130293        -0.121479        -0.089567
 C         2.281466         1.052232        -0.977280
 C         3.371735         0.706908        -0.000544
 O         4.634960         1.283944        -0.121202
 C         2.508994         0.244874         1.109149
 H         3.907970        -2.566846         1.494104
 H         4.738963        -2.250211        -0.031945
 H         4.823384        -1.143165         1.327196
 H        -0.280986        -1.141311         0.431439
 H        -0.495159         0.781366         0.485767
 H        -0.566182        -0.268251        -1.052851
 H         2.432723         0.672339        -2.003904
 H         1.962185         2.078306        -1.020194
 H         4.514226         2.197975        -0.412368
 H         2.536648         0.449999         2.127166
