19
Iteration:  4747
 C         4.357855        -1.714071         0.562395
 C         3.194200        -0.858842         0.239881
 O         1.973480        -1.407047        -0.393157
 C         1.464826        -0.042737        -0.069418
 C        -0.072011         0.150969        -0.089123
 C         2.150711         0.862724        -1.044836
 C         3.339143         0.662582        -0.010940
 O         4.546604         1.374448         0.137829
 C         2.417585         0.197577         1.063849
 H         4.014911        -2.087977         1.627327
 H         4.643520        -2.607562        -0.009067
 H         5.156986        -0.986928         0.662346
 H        -0.556716        -0.544402         0.644311
 H        -0.096034         1.169207         0.300824
 H        -0.456490         0.129585        -1.085030
 H         2.310375         0.651336        -2.101681
 H         1.822158         1.891868        -0.928215
 H         5.042055         0.974447        -0.575945
 H         2.294411         0.396629         2.193947
