19
Iteration:  1731charge 0 multiplicity 1
 C         4.143895        -1.789173         0.664355
 C         3.183728        -0.761724         0.312612
 O         2.098214        -1.288481        -0.494963
 C         1.431970        -0.022702        -0.177345
 C        -0.118080        -0.055984         0.030835
 C         2.293563         0.969304        -0.958957
 C         3.412040         0.691659        -0.035361
 O         4.589001         1.246691        -0.099115
 C         2.377675         0.239539         1.123275
 H         3.544926        -2.369631         1.363917
 H         4.734156        -2.357667        -0.106076
 H         4.918332        -1.360508         1.311785
 H        -0.378549        -0.655907         0.890532
 H        -0.461697         0.988310         0.209680
 H        -0.575293        -0.334238        -1.011322
 H         2.444513         0.757189        -2.058041
 H         1.911699         1.999807        -0.872155
 H         4.622071         1.979975         0.537514
 H         2.281584         0.333208         2.174595
