19
Iteration:  1435charge 0 multiplicity 1
 C         4.295899        -1.697348         0.523877
 C         3.179863        -0.795010         0.353785
 O         2.050814        -1.297970        -0.414417
 C         1.408490         0.082590        -0.099342
 C        -0.130398        -0.025362        -0.092022
 C         2.219555         0.991910        -0.994443
 C         3.328825         0.688730        -0.016286
 O         4.615135         1.104008         0.061590
 C         2.422709         0.241190         1.151390
 H         3.950162        -2.635265         1.070972
 H         4.584953        -2.216583        -0.466086
 H         5.199754        -1.249668         1.006532
 H        -0.524754        -0.732764         0.662963
 H        -0.527960         0.933890        -0.158415
 H        -0.325597        -0.432279        -1.149870
 H         2.288829         0.656458        -2.072268
 H         1.837923         1.965277        -0.837363
 H         4.681258         2.066771        -0.049162
 H         2.212912         0.468908         2.182027
