19
Iteration:  3257
 C         4.159399        -1.902652         0.789989
 C         3.165519        -0.801126         0.209468
 O         2.040418        -1.321896        -0.413321
 C         1.426885         0.000466        -0.166311
 C        -0.059085        -0.067522        -0.019879
 C         2.226099         1.001245        -1.074320
 C         3.377921         0.725718        -0.039586
 O         4.659689         1.299493        -0.067934
 C         2.414231         0.321659         1.127151
 H         3.528747        -2.586140         1.327341
 H         4.612680        -2.351557        -0.078151
 H         4.951169        -1.471709         1.482247
 H        -0.301238        -0.846361         0.702615
 H        -0.430507         0.896234         0.312298
 H        -0.330023        -0.176483        -1.025553
 H         2.438855         0.735915        -2.139924
 H         1.495647         1.849031        -0.927202
 H         4.558843         2.175978         0.336938
 H         2.477633         0.366024         2.242632
