19
Iteration:  3265
 C         4.108747        -1.833700         0.809315
 C         3.203055        -0.795219         0.308483
 O         2.048981        -1.300801        -0.497662
 C         1.410927        -0.008922        -0.067883
 C        -0.066702        -0.025707         0.001117
 C         2.282587         0.938065        -1.053704
 C         3.380556         0.704095        -0.025690
 O         4.623682         1.324170        -0.106237
 C         2.435648         0.245896         1.012782
 H         3.698765        -2.732086         1.315197
 H         4.594749        -2.285958        -0.068653
 H         4.859496        -1.546320         1.487138
 H        -0.235844        -0.950832         0.585216
 H        -0.617843         0.917100         0.498033
 H        -0.481560        -0.208351        -0.996896
 H         2.349293         0.806675        -2.134848
 H         1.919508         1.964341        -1.028166
 H         4.459212         2.005484         0.533472
 H         2.369153         0.529226         2.107844
