19
Iteration:   247
 C         4.303741        -1.841050         0.554289
 C         3.219655        -0.862664         0.169829
 O         2.016135        -1.274742        -0.400004
 C         1.427683        -0.010672        -0.048440
 C        -0.064425         0.005150        -0.128875
 C         2.170304         0.963642        -0.937051
 C         3.342302         0.725374        -0.019698
 O         4.542597         1.335121         0.093330
 C         2.448209         0.218210         1.095229
 H         3.877381        -2.753696         1.063667
 H         4.707075        -2.385024        -0.389723
 H         5.000310        -1.173081         1.051813
 H        -0.688023        -0.484152         0.711780
 H        -0.431227         1.134052         0.121915
 H        -0.437350        -0.151328        -1.140277
 H         2.329568         0.413011        -1.975299
 H         1.852098         1.992018        -1.145837
 H         5.079694         0.937009         0.831531
 H         2.329834         0.698963         2.015372
