19
Iteration:  3744
 C         4.378035        -1.746625         0.703811
 C         3.125443        -0.932808         0.405736
 O         1.973555        -1.370369        -0.425226
 C         1.433089         0.049729        -0.167236
 C        -0.130538         0.027842        -0.115239
 C         2.206874         0.993021        -1.014788
 C         3.326149         0.657420        -0.085073
 O         4.653874         1.265417        -0.021700
 C         2.439195         0.257930         1.066791
 H         4.328564        -2.483162         1.486503
 H         4.674780        -2.180245        -0.243361
 H         5.151758        -1.012793         1.098145
 H        -0.452962        -0.494440         0.827019
 H        -0.816562         0.981129         0.022009
 H        -0.638361        -0.680816        -0.866068
 H         2.262162         0.627649        -2.022498
 H         1.767789         1.993734        -0.841766
 H         4.642794         2.074767         0.478360
 H         2.433807         0.733211         2.137372
