19
Iteration:  3772
 C         4.211141        -1.731463         0.703583
 C         3.236434        -0.823387         0.231389
 O         1.976837        -1.299002        -0.335496
 C         1.426167        -0.022665        -0.094202
 C        -0.119368        -0.019328        -0.060378
 C         2.262728         0.936369        -1.054020
 C         3.390808         0.614789        -0.173739
 O         4.589641         1.338721         0.033675
 C         2.477336         0.235513         1.054143
 H         3.782471        -2.403952         1.527213
 H         4.517027        -2.381226        -0.167627
 H         5.085863        -1.192287         0.956586
 H        -0.565286        -0.417221         0.861572
 H        -0.612917         0.873589        -0.153705
 H        -0.420597        -0.594625        -0.941856
 H         2.304380         0.463500        -2.069058
 H         1.929427         1.977724        -0.920724
 H         4.482792         1.934482         0.773455
 H         2.543083         0.393017         2.137551
