19
Iteration:   395charge 0 multiplicity 1
 C         4.397782        -1.816174         0.479691
 C         3.168890        -0.840996         0.351152
 O         1.984195        -1.256856        -0.428689
 C         1.365916        -0.015991        -0.053228
 C        -0.152448         0.014576        -0.125832
 C         2.178626         0.941532        -1.026213
 C         3.363268         0.673356        -0.004135
 O         4.645268         1.234520         0.114758
 C         2.466055         0.259520         1.107035
 H         4.179469        -2.548140         1.249431
 H         4.730938        -2.151159        -0.457480
 H         5.175457        -1.108037         0.832391
 H        -0.755351        -0.692523         0.471002
 H        -0.405244         1.037204         0.073925
 H        -0.416031        -0.171420        -1.248090
 H         2.206261         0.578145        -2.025504
 H         1.636631         1.916041        -1.025590
 H         4.520811         2.057089         0.642300
 H         2.331270         0.411053         2.233111
