19
Iteration:  4041
 C         4.277191        -1.647377         0.731614
 C         3.178552        -0.767859         0.315571
 O         2.041005        -1.413953        -0.403108
 C         1.361553        -0.055765        -0.171146
 C        -0.114846        -0.005232        -0.084690
 C         2.193003         0.976767        -0.989672
 C         3.409517         0.632383        -0.085428
 O         4.636248         1.186850         0.048145
 C         2.424578         0.330274         1.004859
 H         3.906772        -2.658298         1.069021
 H         4.899551        -2.026983        -0.146251
 H         5.118451        -1.351633         1.360644
 H        -0.501765        -0.963490         0.427968
 H        -0.358231         0.847288         0.590778
 H        -0.774712         0.222182        -0.896984
 H         2.117442         0.760438        -2.089341
 H         1.750020         2.005684        -0.867401
 H         4.386237         2.159649        -0.026857
 H         2.599443         0.636117         2.062981
