19
Iteration:   813
 C         4.197662        -1.860220         0.586418
 C         3.127297        -0.829390         0.351303
 O         2.075822        -1.301068        -0.498507
 C         1.446362        -0.054734        -0.200932
 C        -0.060793        -0.148039        -0.048744
 C         2.137972         1.137797        -0.909091
 C         3.388610         0.747557         0.026560
 O         4.746976         1.302659        -0.028711
 C         2.316569         0.200354         1.117078
 H         3.899766        -2.627992         1.428575
 H         4.217218        -2.231080        -0.447407
 H         5.260788        -1.555872         0.853444
 H        -0.469885        -0.438485         0.911792
 H        -0.480909         0.884108        -0.179529
 H        -0.511293        -0.949416        -0.634422
 H         2.285213         1.220774        -2.049639
 H         1.714272         2.033291        -0.450892
 H         4.809719         2.243541         0.294514
 H         2.203666         0.637680         2.091497
