19
Iteration:  3410
 C         4.264731        -1.813084         0.673049
 C         3.258638        -0.831264         0.296751
 O         2.001869        -1.224512        -0.390005
 C         1.371632         0.025212        -0.082963
 C        -0.163444        -0.037342        -0.146610
 C         2.162790         0.911259        -0.967400
 C         3.373780         0.715624        -0.074809
 O         4.684104         1.197240         0.009599
 C         2.483814         0.291851         1.038255
 H         3.752887        -2.433522         1.352637
 H         4.661475        -2.425989        -0.100449
 H         5.092302        -1.332365         1.298668
 H        -0.622534        -0.530706         0.760853
 H        -0.542450         1.056742        -0.298487
 H        -0.454922        -0.693481        -0.999221
 H         2.257720         0.636726        -2.013364
 H         1.639417         1.864198        -0.893281
 H         4.542041         2.013212         0.574323
 H         2.411972         0.698489         2.026041
