19
Iteration:   974
 C         4.232037        -1.851236         0.630750
 C         3.164106        -0.872748         0.327465
 O         2.144172        -1.271615        -0.524381
 C         1.412182         0.029427        -0.099251
 C        -0.094870        -0.030731        -0.109135
 C         2.117166         1.076560        -0.918713
 C         3.291841         0.750430         0.020219
 O         4.599301         1.260605        -0.017336
 C         2.549257         0.122675         1.131434
 H         3.954215        -2.620006         1.465371
 H         4.334478        -2.357542        -0.303145
 H         5.144632        -1.337389         0.930001
 H        -0.706181        -0.466550         0.687757
 H        -0.458937         1.054045        -0.386190
 H        -0.411363        -0.723233        -0.912906
 H         2.095557         0.766160        -1.983663
 H         1.726292         2.101870        -0.640261
 H         4.701258         2.142193         0.412823
 H         2.401198         0.486994         2.061209
