19
Iteration:  4557charge 0 multiplicity 1
 C         4.331257        -1.795778         0.575607
 C         3.212332        -0.824370         0.358622
 O         1.993428        -1.307637        -0.337606
 C         1.409703        -0.085404        -0.192851
 C        -0.106670         0.026029         0.028302
 C         2.283040         0.936514        -1.096479
 C         3.328583         0.661835        -0.074470
 O         4.584678         1.402497         0.078473
 C         2.319692         0.247973         1.012804
 H         4.061930        -2.569262         1.264190
 H         4.518817        -2.336739        -0.436539
 H         5.314722        -1.267086         0.824920
 H        -0.606983        -0.679152         0.677841
 H        -0.417231         1.032381         0.394435
 H        -0.678845        -0.073644        -0.940266
 H         2.451114         0.652347        -2.139300
 H         1.966224         1.984427        -0.979194
 H         5.258789         0.809994         0.473016
 H         2.271855         0.498848         2.129992
