19
Iteration:  1414
 C         4.310290        -1.803802         0.564253
 C         3.213561        -0.878978         0.219379
 O         1.926566        -1.265059        -0.328088
 C         1.327874        -0.008379        -0.011954
 C        -0.115550        -0.061472        -0.168131
 C         2.226521         1.054871        -0.974440
 C         3.355512         0.654380        -0.109818
 O         4.661557         1.265760         0.109044
 C         2.488436         0.256825         1.066655
 H         4.047167        -2.647015         1.253823
 H         4.634379        -2.446640        -0.320232
 H         5.129367        -1.212894         1.004609
 H        -0.683566        -0.586600         0.636338
 H        -0.368769         0.964289        -0.265017
 H        -0.542752        -0.638125        -1.122725
 H         2.250120         0.760876        -2.077173
 H         1.881782         2.050762        -0.776172
 H         4.557999         2.153181         0.551648
 H         2.733578         0.593100         2.052597
