19
Iteration:  3840charge 0 multiplicity 1
 C         4.195993        -1.787150         0.790381
 C         3.121935        -0.888036         0.321453
 O         1.995533        -1.273430        -0.473824
 C         1.362015         0.019183        -0.068650
 C        -0.086110        -0.115133        -0.095310
 C         2.255574         1.048195        -1.003615
 C         3.333046         0.733085        -0.023837
 O         4.660609         1.271321        -0.110849
 C         2.545727         0.219973         1.082209
 H         3.963193        -2.580748         1.555777
 H         4.883924        -2.206831         0.022840
 H         4.888451        -1.102949         1.416053
 H        -0.412847        -0.966728         0.464544
 H        -0.671330         0.540106         0.545279
 H        -0.483691        -0.172088        -1.166454
 H         2.487414         0.580449        -1.985461
 H         1.851464         2.111320        -0.925021
 H         4.556030         2.198162        -0.385275
 H         2.431979         0.436152         2.233887
