19
Iteration:   667charge 0 multiplicity 1
 C         4.159867        -1.921399         0.733614
 C         3.149880        -0.840088         0.254563
 O         2.052435        -1.243213        -0.533914
 C         1.431650         0.033815        -0.118988
 C         0.002492        -0.171175        -0.011633
 C         2.112210         1.160011        -0.914737
 C         3.393609         0.706906        -0.123179
 O         4.662228         1.243994         0.025068
 C         2.456739         0.296656         1.033336
 H         3.684508        -2.809959         1.307304
 H         4.844922        -2.279886        -0.138194
 H         4.737989        -1.395107         1.541545
 H        -0.260605        -1.178580         0.403118
 H        -0.433141         0.462756         0.751500
 H        -0.371109        -0.159337        -1.031239
 H         2.043022         0.999250        -1.993814
 H         1.768890         2.145129        -0.465127
 H         4.552919         2.190294        -0.075731
 H         2.257223         0.404022         2.056458
