19
Iteration:  1481
 C         4.293472        -1.702209         0.745216
 C         3.163653        -0.853374         0.265507
 O         2.031815        -1.296675        -0.474448
 C         1.380161         0.027279        -0.086390
 C        -0.136750        -0.017801        -0.051078
 C         2.210640         1.065567        -0.985409
 C         3.340683         0.665823        -0.046124
 O         4.620379         1.145872        -0.005733
 C         2.424277         0.203717         1.011395
 H         3.924219        -2.716358         1.038439
 H         5.023770        -2.085504        -0.116125
 H         4.918235        -1.161198         1.460557
 H        -0.192984        -1.011810         0.456788
 H        -0.453527         0.886272         0.566706
 H        -0.612565         0.043777        -1.088499
 H         2.392778         0.823093        -2.046029
 H         2.017900         2.151419        -0.753142
 H         4.550224         2.065936         0.252640
 H         2.609373         0.308216         2.127811
