19
Iteration:  4155charge 0 multiplicity 1
 C         4.153507        -1.747010         0.735763
 C         3.113857        -0.788521         0.360080
 O         2.036013        -1.293610        -0.501172
 C         1.371971        -0.017180        -0.087115
 C        -0.096080        -0.196639        -0.013940
 C         2.319574         1.093812        -0.977695
 C         3.438201         0.724896        -0.043610
 O         4.764462         1.255466        -0.121438
 C         2.273253         0.186177         1.105205
 H         3.889547        -2.233836         1.653249
 H         4.351747        -2.466756        -0.040949
 H         5.062262        -1.075777         0.691235
 H        -0.349033        -0.669322         0.891429
 H        -0.619547         0.769964        -0.161743
 H        -0.265746        -0.790124        -0.965949
 H         2.288622         0.867631        -2.020710
 H         1.853404         2.048094        -0.861780
 H         4.710556         2.218220         0.096573
 H         2.115568         0.437869         2.190717
