19
Iteration:  1141charge 0 multiplicity 1
 C         4.197785        -1.847007         0.642976
 C         3.202357        -0.764646         0.192624
 O         2.021965        -1.298337        -0.423093
 C         1.451239        -0.011236        -0.065604
 C        -0.033709        -0.036776        -0.090513
 C         2.096191         1.038049        -0.968880
 C         3.324123         0.731821        -0.039446
 O         4.652693         1.248198         0.093063
 C         2.478710         0.191518         1.035542
 H         3.691499        -2.444375         1.365248
 H         4.670750        -2.479260        -0.181979
 H         5.024198        -1.360750         1.267271
 H        -0.477638        -1.016020         0.280261
 H        -0.328264         0.901562         0.412725
 H        -0.378446        -0.132206        -1.177390
 H         2.129373         0.641843        -2.054379
 H         1.777183         2.055323        -0.870614
 H         4.809661         2.220231         0.016939
 H         2.419205         0.359637         2.202416
