19
Iteration:  1517charge 0 multiplicity 1
 C         4.158713        -1.871249         0.767379
 C         3.267309        -0.820265         0.200971
 O         2.051892        -1.316209        -0.466450
 C         1.379283        -0.037812        -0.121026
 C        -0.111314        -0.004130        -0.020920
 C         2.194143         1.009031        -0.949971
 C         3.369436         0.642393        -0.129494
 O         4.638099         1.356149         0.001494
 C         2.494805         0.228580         1.008889
 H         3.572395        -2.557888         1.285220
 H         4.750308        -2.261251        -0.034267
 H         4.814842        -1.471972         1.580517
 H        -0.571560        -0.871247         0.521218
 H        -0.548697         0.872735         0.626993
 H        -0.578650         0.001711        -1.003431
 H         2.175835         0.837023        -2.012164
 H         1.847112         2.086113        -0.783118
 H         4.567174         2.079456         0.621270
 H         2.640214         0.450529         2.014559
