19
Iteration:  3256charge 0 multiplicity 1
 C         4.165023        -1.906251         0.787017
 C         3.165743        -0.802982         0.207963
 O         2.038446        -1.323148        -0.404515
 C         1.430451         0.001953        -0.175418
 C        -0.054691        -0.075716        -0.026154
 C         2.215917         1.009955        -1.072805
 C         3.375973         0.726314        -0.046822
 O         4.661665         1.298332        -0.061114
 C         2.414475         0.326580         1.132159
 H         3.504776        -2.563532         1.322058
 H         4.625933        -2.366347        -0.069672
 H         4.933078        -1.467039         1.446445
 H        -0.329204        -0.836859         0.702630
 H        -0.429099         0.943865         0.315459
 H        -0.341920        -0.191173        -1.015354
 H         2.443565         0.716011        -2.118803
 H         1.503114         1.838273        -0.917999
 H         4.592252         2.179528         0.297652
 H         2.476349         0.351910         2.267916
