19
Iteration:  1943charge 0 multiplicity 1
 C         4.296744        -1.760580         0.572418
 C         3.231117        -0.791512         0.378340
 O         2.005121        -1.270902        -0.336599
 C         1.364926         0.021724        -0.047556
 C        -0.184179        -0.057004        -0.148700
 C         2.206719         1.035349        -1.046759
 C         3.386587         0.620380        -0.130313
 O         4.616445         1.160276         0.098815
 C         2.495359         0.241201         1.076334
 H         3.856815        -2.554732         1.223678
 H         4.590842        -2.123253        -0.423888
 H         5.135717        -1.213093         1.022954
 H        -0.541042        -0.812961         0.721973
 H        -0.637685         0.903416         0.111536
 H        -0.436047        -0.277407        -1.172741
 H         2.073761         0.960603        -2.143324
 H         2.014690         2.123176        -0.869714
 H         4.633704         2.087037        -0.138032
 H         2.529353         0.519965         2.094575
