19
Iteration:  4690
 C         4.188424        -1.785487         0.631782
 C         3.157331        -0.826778         0.315900
 O         1.956810        -1.344570        -0.397865
 C         1.465429        -0.007936        -0.126218
 C        -0.039868        -0.088783         0.014819
 C         2.210742         1.047064        -1.108288
 C         3.422278         0.669787        -0.118244
 O         4.561098         1.336843         0.138460
 C         2.442582         0.286065         1.017937
 H         3.813206        -2.752226         1.086578
 H         4.780822        -2.020033        -0.226018
 H         4.968714        -1.445169         1.401711
 H        -0.313220        -0.436604         1.087573
 H        -0.572954         0.874383        -0.024967
 H        -0.487306        -0.790640        -0.631636
 H         2.419556         0.786569        -2.117694
 H         1.848955         2.075047        -0.927996
 H         5.243833         1.245098        -0.567437
 H         2.572338         0.629203         2.000804
