19
Iteration:   669charge 0 multiplicity 1
 C         4.146556        -1.910663         0.721300
 C         3.168136        -0.859699         0.235755
 O         2.052100        -1.249049        -0.521046
 C         1.412610         0.039326        -0.108953
 C         0.000677        -0.182054        -0.017010
 C         2.129794         1.156933        -0.917550
 C         3.377664         0.706169        -0.110215
 O         4.647861         1.245041         0.029995
 C         2.486370         0.303960         1.029828
 H         3.658695        -2.816738         1.316527
 H         4.859735        -2.243274        -0.071045
 H         4.678613        -1.367897         1.504569
 H        -0.308802        -1.215635         0.361027
 H        -0.401932         0.512584         0.806392
 H        -0.350214        -0.127402        -1.044320
 H         2.096446         1.047877        -2.050856
 H         1.785275         2.163734        -0.506975
 H         4.578132         2.209254        -0.102786
 H         2.279015         0.420233         2.097027
