19
Iteration:  2311
 C         4.332303        -1.670017         0.653685
 C         3.214840        -0.845465         0.161721
 O         1.943148        -1.308427        -0.260117
 C         1.370646        -0.013487        -0.131090
 C        -0.083128         0.061540        -0.082850
 C         2.148156         0.998891        -1.017106
 C         3.332900         0.647485        -0.123651
 O         4.685007         1.116214         0.124991
 C         2.507276         0.189471         0.981971
 H         3.854156        -2.492115         1.092036
 H         4.891159        -1.976351        -0.221255
 H         4.927502        -1.023732         1.343682
 H        -0.438605        -0.779163         0.676143
 H        -0.563425         0.944637         0.253196
 H        -0.645892        -0.222837        -1.113060
 H         2.315752         0.920307        -2.102746
 H         1.570552         1.926492        -0.815193
 H         4.514984         2.106077         0.276617
 H         2.382840         0.803130         1.923353
