19
Iteration:  1969
 C         4.362777        -1.787508         0.522145
 C         3.181831        -0.844926         0.259831
 O         1.945661        -1.301548        -0.282495
 C         1.411113         0.045567        -0.071658
 C        -0.090269        -0.005361        -0.168249
 C         2.185380         0.934173        -0.995396
 C         3.364954         0.664919        -0.011082
 O         4.634516         1.199034         0.046332
 C         2.434438         0.309337         1.093528
 H         4.038890        -2.602551         1.324312
 H         4.677880        -2.294785        -0.427960
 H         5.096431        -0.990751         0.741344
 H        -0.506051        -0.611884         0.681794
 H        -0.403483         1.061706         0.026458
 H        -0.360437        -0.285492        -1.237919
 H         2.308776         0.650180        -2.085599
 H         1.662330         1.887244        -1.069520
 H         4.559280         1.959969         0.610635
 H         2.172505         0.631196         2.131407
