19
Iteration:  1474
 C         4.330570        -1.698957         0.690318
 C         3.134053        -0.805824         0.275808
 O         2.031205        -1.289062        -0.471918
 C         1.357000         0.017974        -0.146942
 C        -0.141804        -0.050432        -0.043267
 C         2.304360         1.035156        -0.984703
 C         3.354325         0.653383        -0.008342
 O         4.615818         1.130431        -0.028378
 C         2.402279         0.184883         1.077260
 H         3.802638        -2.520268         1.109106
 H         4.950152        -1.865263        -0.104863
 H         5.005497        -1.229322         1.418185
 H        -0.537508        -0.845638         0.633394
 H        -0.546470         0.808584         0.615879
 H        -0.619408         0.032929        -0.988383
 H         2.486159         0.992499        -2.049100
 H         1.991944         2.115401        -0.748224
 H         4.663431         2.081929         0.148701
 H         2.292732         0.486655         2.100164
