19
Iteration:  4234charge 0 multiplicity 1
 C         4.351671        -1.756140         0.654738
 C         3.240884        -0.873600         0.311021
 O         1.948573        -1.384113        -0.301138
 C         1.345210        -0.042900        -0.130594
 C        -0.141700         0.053605        -0.051800
 C         2.335430         0.983979        -1.136725
 C         3.318968         0.672251        -0.068780
 O         4.577424         1.347987        -0.008937
 C         2.441060         0.202396         1.076491
 H         4.092899        -2.746807         1.101739
 H         4.940823        -2.109570        -0.196315
 H         4.976886        -1.373632         1.552006
 H        -0.648635        -0.909236         0.248392
 H        -0.495405         1.038482         0.428713
 H        -0.551084         0.212891        -1.047968
 H         2.576456         0.631828        -2.133507
 H         1.926528         2.019157        -1.163974
 H         4.608319         1.959510         0.737800
 H         2.187242         0.541293         2.040632
