19
Iteration:  4682
 C         4.209381        -1.804417         0.663269
 C         3.103730        -0.840407         0.316674
 O         2.006417        -1.377688        -0.411168
 C         1.384021         0.022975        -0.095751
 C        -0.070894        -0.123465         0.036306
 C         2.249890         1.086608        -1.138372
 C         3.324344         0.742793        -0.134598
 O         4.625011         1.354498         0.116892
 C         2.543135         0.266416         1.058029
 H         3.551274        -2.696440         1.011457
 H         4.740018        -2.147140        -0.215297
 H         4.815691        -1.570961         1.509301
 H        -0.375216        -0.627134         0.966818
 H        -0.624296         0.774464        -0.188708
 H        -0.393947        -0.759310        -0.771366
 H         2.098409         0.836586        -2.217253
 H         2.024793         2.165251        -0.991489
 H         5.315429         1.127061        -0.532603
 H         2.550898         0.634588         2.135720
