19
Iteration:   625
 C         4.228859        -1.732324         0.631471
 C         3.186720        -0.865020         0.213681
 O         2.024333        -1.288613        -0.589618
 C         1.386973        -0.010071        -0.101660
 C        -0.127750        -0.057258        -0.042960
 C         2.297329         1.050130        -0.888426
 C         3.347600         0.731522         0.066038
 O         4.590413         1.224740        -0.023079
 C         2.453633         0.226019         1.138301
 H         3.815468        -2.411172         1.483756
 H         4.649275        -2.346376        -0.183219
 H         5.104311        -1.216198         0.972382
 H        -0.389777        -0.617908         0.933704
 H        -0.534564         1.007715        -0.029931
 H        -0.438502        -0.780095        -0.797267
 H         2.515197         0.749373        -1.949133
 H         1.754337         2.033453        -1.024046
 H         4.785287         2.032662         0.494426
 H         2.352233         0.020689         2.155729
