19
Iteration:  2038
 C         4.133641        -1.752408         0.761209
 C         3.139579        -0.858511         0.234752
 O         2.032182        -1.348929        -0.519931
 C         1.421727        -0.011970        -0.034898
 C        -0.118454        -0.059200         0.021449
 C         2.199216         1.053688        -1.032646
 C         3.444688         0.663212        -0.141725
 O         4.627979         1.257438         0.057853
 C         2.563196         0.233507         1.006526
 H         3.735084        -2.553609         1.399434
 H         4.744375        -2.240971        -0.044473
 H         4.930957        -1.133656         1.328255
 H        -0.528959        -0.698567         0.728095
 H        -0.524362         0.924260         0.340429
 H        -0.633113        -0.217247        -0.961606
 H         2.082087         0.897131        -2.079609
 H         2.013932         2.153952        -0.907310
 H         4.485557         2.209241         0.123839
 H         2.464930         0.459910         2.142913
