19
Iteration:  3206
 C         4.360568        -1.758445         0.654792
 C         3.119141        -0.858728         0.367406
 O         1.979741        -1.242647        -0.381702
 C         1.373695         0.029891        -0.105195
 C        -0.136756        -0.029655        -0.167038
 C         2.265606         1.000172        -0.999529
 C         3.365173         0.621410         0.012090
 O         4.617878         1.163330        -0.019066
 C         2.426505         0.268757         1.096878
 H         4.170226        -2.416779         1.527287
 H         4.629541        -2.173161        -0.316129
 H         5.219216        -1.013316         0.807600
 H        -0.320148        -0.404488         0.863033
 H        -0.497604         0.941697        -0.209498
 H        -0.356353        -0.727661        -1.077017
 H         2.238700         0.576716        -1.990531
 H         2.077635         2.069282        -0.885945
 H         4.518243         2.131745        -0.241304
 H         2.198921         0.562594         2.086183
