19
Iteration:  1136
 C         4.202167        -1.804591         0.630810
 C         3.224334        -0.787401         0.167564
 O         1.995996        -1.304795        -0.434141
 C         1.409565        -0.072123        -0.038813
 C        -0.035383        -0.046915        -0.123742
 C         2.107952         1.009155        -0.944202
 C         3.321873         0.754645        -0.073391
 O         4.672924         1.235504         0.095061
 C         2.507932         0.244873         1.085656
 H         3.769894        -2.569425         1.381188
 H         4.599013        -2.429579        -0.122125
 H         4.860326        -1.274171         1.281386
 H        -0.512013        -0.944727         0.187601
 H        -0.225266         0.934303         0.374703
 H        -0.298715         0.079639        -1.168162
 H         2.094889         0.620698        -1.924343
 H         1.740483         2.061228        -0.733800
 H         4.731105         2.193576         0.088502
 H         2.409783         0.427064         2.072723
