19
Iteration:   854charge 0 multiplicity 1
 C         4.262910        -1.831455         0.672617
 C         3.271391        -0.831516         0.144362
 O         1.954964        -1.252138        -0.522744
 C         1.341827         0.020180         0.035234
 C        -0.032566        -0.046083        -0.075058
 C         2.235437         1.028720        -0.949137
 C         3.377894         0.608420        -0.104895
 O         4.597060         1.355851         0.022059
 C         2.443869         0.114447         1.106634
 H         3.648797        -2.570369         1.366255
 H         4.898520        -2.227541        -0.120700
 H         4.652261        -1.298898         1.535409
 H        -0.482312        -0.909086         0.494482
 H        -0.628215         0.839583         0.343412
 H        -0.118234        -0.167889        -1.141311
 H         2.174758         0.665018        -1.963627
 H         2.011042         2.033005        -0.500414
 H         4.275612         2.182582         0.403552
 H         2.658562         0.605503         2.085926
