19
Iteration:  4569
 C         4.395843        -1.768434         0.611101
 C         3.201349        -0.840702         0.302465
 O         2.011418        -1.436896        -0.388238
 C         1.383321         0.048371        -0.116725
 C        -0.146911         0.104153        -0.031102
 C         2.253221         1.001635        -1.111699
 C         3.351113         0.683910        -0.042838
 O         4.485856         1.322130         0.068972
 C         2.438220         0.215699         1.057239
 H         4.128961        -2.484776         1.397719
 H         4.572830        -2.308076        -0.357966
 H         5.411096        -1.345799         0.986366
 H        -0.245347        -0.800843         0.604317
 H        -0.364559         0.999711         0.597502
 H        -0.666928         0.028969        -0.969515
 H         2.390429         0.515998        -2.083900
 H         1.741773         1.978369        -1.238669
 H         5.117229         0.798169         0.561505
 H         2.167590         0.687193         2.048170
