19
Iteration:  4026charge 0 multiplicity 1
 C         4.267391        -1.722482         0.757351
 C         3.156873        -0.822064         0.292531
 O         2.030969        -1.333897        -0.366186
 C         1.418091        -0.071127        -0.171227
 C        -0.081903        -0.087923        -0.072433
 C         2.152196         1.076886        -1.007708
 C         3.320701         0.685554        -0.140590
 O         4.639554         1.170564        -0.014975
 C         2.492621         0.270129         1.045437
 H         3.892375        -2.441024         1.460599
 H         4.757217        -2.154514        -0.098381
 H         4.737493        -0.953381         1.428231
 H        -0.487927        -0.994845         0.328375
 H        -0.292469         0.845825         0.533591
 H        -0.461289        -0.007014        -1.113850
 H         2.312152         1.124052        -2.111018
 H         1.752560         2.022641        -0.524289
 H         4.794750         2.092781         0.245601
 H         2.287793         0.683515         1.963013
