19
Iteration:  1867charge 0 multiplicity 1
 C         4.198579        -1.816061         0.808270
 C         3.125661        -0.924799         0.261930
 O         1.991956        -1.302577        -0.533773
 C         1.403093        -0.081248        -0.101786
 C        -0.052538        -0.011964         0.038692
 C         2.133018         1.047411        -0.995253
 C         3.384931         0.697629        -0.211706
 O         4.702371         1.328802         0.061963
 C         2.551956         0.227171         0.975307
 H         3.707236        -2.664733         1.447373
 H         4.797464        -2.143213        -0.089559
 H         4.805237        -1.409331         1.671029
 H        -0.596554        -0.870785         0.692563
 H        -0.488893         0.948780         0.364306
 H        -0.393888        -0.166314        -0.996732
 H         2.134508         0.915344        -2.097933
 H         1.713866         2.065237        -0.826908
 H         4.518356         2.234467         0.473994
 H         2.494282         0.573667         2.053572
