19
Iteration:  1678
 C         4.169824        -1.866299         0.735031
 C         3.294668        -0.843993         0.259387
 O         2.025597        -1.323007        -0.420670
 C         1.422499         0.056840        -0.108554
 C        -0.139537        -0.042560        -0.007170
 C         2.164207         1.013848        -1.050707
 C         3.425180         0.629970        -0.145848
 O         4.565861         1.306719         0.068045
 C         2.505165         0.259749         1.022839
 H         3.611606        -2.640005         1.163249
 H         4.856399        -2.204062        -0.110176
 H         4.598870        -1.599107         1.703679
 H        -0.380378        -0.949842         0.465178
 H        -0.396712         0.823050         0.589791
 H        -0.503089        -0.017078        -1.024672
 H         2.309152         0.918829        -2.086872
 H         1.993768         2.093131        -0.963660
 H         4.316178         2.238415        -0.068008
 H         2.759187         0.667435         1.971133
