19
Iteration:   766charge 0 multiplicity 1
 C         4.353512        -1.709821         0.516268
 C         3.168179        -0.888091         0.284067
 O         1.918290        -1.297848        -0.512196
 C         1.373564         0.031171        -0.074851
 C        -0.163458        -0.012371        -0.094945
 C         2.136527         0.949109        -0.966720
 C         3.391964         0.718558        -0.066440
 O         4.699185         1.229368         0.198727
 C         2.513563         0.195727         1.072446
 H         4.274132        -2.352982         1.530933
 H         4.728822        -2.243294        -0.394412
 H         5.206982        -1.077688         0.821775
 H        -0.656225        -0.583921         0.751614
 H        -0.547117         1.024830        -0.039323
 H        -0.423495        -0.706358        -0.857830
 H         2.231751         0.485231        -1.972658
 H         1.819937         2.031935        -1.121378
 H         4.493039         2.109147         0.573513
 H         2.436316         0.558063         2.144782
