19
Iteration:  4889charge 0 multiplicity 1
 C         4.330382        -1.740679         0.570973
 C         3.221903        -0.799063         0.259725
 O         1.968091        -1.376195        -0.493168
 C         1.379058        -0.060756        -0.088950
 C        -0.095522         0.139778         0.066179
 C         2.251787         0.880184        -1.048429
 C         3.333860         0.669396        -0.028261
 O         4.559406         1.341158         0.138868
 C         2.420596         0.181860         1.029431
 H         4.065086        -2.754363         0.994617
 H         5.223432        -1.764769         0.002535
 H         4.665973        -1.147369         1.355827
 H        -0.653875        -0.049342         0.971504
 H        -0.337058         1.168155        -0.237485
 H        -0.583936        -0.389400        -0.815521
 H         2.524329         0.783936        -2.089347
 H         1.850955         1.830426        -0.822637
 H         5.201880         0.933148        -0.427613
 H         2.222777         0.265304         2.070749
