19
Iteration:  3548
 C         4.280541        -1.730187         0.641245
 C         3.163172        -0.735940         0.408853
 O         1.978894        -1.272704        -0.451232
 C         1.394613        -0.017495        -0.064747
 C        -0.062784        -0.046538        -0.153668
 C         2.201179         0.897008        -0.944126
 C         3.358037         0.668862        -0.026280
 O         4.668596         1.166022        -0.061255
 C         2.419051         0.316163         1.141061
 H         4.133120        -2.619751         1.296935
 H         4.494298        -2.038803        -0.400537
 H         5.152817        -1.226684         1.081273
 H        -0.511722        -0.642837         0.611933
 H        -0.498212         0.979847        -0.232389
 H        -0.260095        -0.563064        -1.069516
 H         2.307371         0.550248        -2.015314
 H         1.839387         1.953477        -1.013639
 H         4.582003         2.055119         0.284033
 H         2.087563         0.598358         2.091063
