19
Iteration:  2529
 C         4.215538        -1.869752         0.703433
 C         3.225758        -0.838777         0.340493
 O         2.048369        -1.221514        -0.425676
 C         1.408775         0.001233        -0.146323
 C        -0.052031         0.003547         0.002419
 C         2.191699         0.990936        -1.009279
 C         3.354489         0.713056        -0.063721
 O         4.633687         1.258266        -0.067043
 C         2.382046         0.161565         1.100500
 H         3.815021        -2.701624         1.331802
 H         4.675078        -2.381156        -0.188951
 H         5.001913        -1.322980         1.213058
 H        -0.497850        -0.602026         0.743528
 H        -0.526239         0.932615         0.025942
 H        -0.418939        -0.338535        -1.016007
 H         2.436595         0.877856        -2.090879
 H         1.790745         2.021775        -0.916755
 H         4.527213         2.216755        -0.037447
 H         2.302421         0.331304         2.147286
