19
Iteration:   945charge 0 multiplicity 1
 C         4.336551        -1.729494         0.558169
 C         3.184222        -0.855559         0.181323
 O         1.890451        -1.277361        -0.330920
 C         1.369437         0.015580        -0.130700
 C        -0.138690        -0.138067        -0.115314
 C         2.235219         1.084924        -0.914867
 C         3.405410         0.647336        -0.045354
 O         4.707025         1.246985         0.084331
 C         2.397962         0.188981         1.040957
 H         4.103318        -2.488970         1.305874
 H         4.747296        -2.272995        -0.295126
 H         5.094677        -1.111984         1.121846
 H        -0.576239        -0.885160         0.492066
 H        -0.566339         0.788906         0.108740
 H        -0.416282        -0.215428        -1.182414
 H         2.214407         0.982861        -2.009265
 H         2.134821         2.043153        -0.495195
 H         4.552488         2.182148         0.381484
 H         2.399693         0.458625         2.086676
