19
Iteration:  2073
 C         4.181894        -1.858738         0.773422
 C         3.148948        -0.818171         0.376910
 O         2.050228        -1.251608        -0.510498
 C         1.424564         0.048348        -0.100042
 C        -0.050262        -0.107082         0.010016
 C         2.182675         1.114448        -1.033977
 C         3.365661         0.695402        -0.090871
 O         4.686312         1.222420        -0.104492
 C         2.413242         0.209300         1.087196
 H         3.669360        -2.653426         1.331724
 H         4.667825        -2.127676        -0.171829
 H         4.880751        -1.430531         1.550418
 H        -0.277314        -1.043020         0.637056
 H        -0.365837         0.816270         0.397238
 H        -0.420399        -0.296474        -0.959512
 H         2.089300         0.745708        -2.057140
 H         2.039984         2.184245        -0.739924
 H         4.657766         2.199419        -0.010031
 H         2.009310         0.235978         2.040817
