19
Iteration:  2554charge 0 multiplicity 1
 C         4.114078        -1.849187         0.715581
 C         3.222259        -0.821851         0.403269
 O         2.171672        -1.303070        -0.603670
 C         1.386739         0.045134        -0.115980
 C        -0.071684        -0.072946        -0.001363
 C         2.220574         1.022615        -0.858314
 C         3.385903         0.696559        -0.038288
 O         4.602887         1.257686        -0.161088
 C         2.383354         0.268187         1.115673
 H         3.704125        -2.402466         1.630019
 H         4.159788        -2.579507        -0.120643
 H         5.090952        -1.497635         0.995450
 H        -0.521138        -0.907243         0.720109
 H        -0.640105         0.848696         0.238151
 H        -0.498428        -0.325502        -0.901560
 H         2.327094         0.764384        -1.993434
 H         2.242648         2.206989        -0.930188
 H         4.609311         2.113970         0.232704
 H         2.176877         0.606254         2.167041
