19
Iteration:  1408charge 0 multiplicity 1
 C         4.315201        -1.827936         0.584843
 C         3.173538        -0.869808         0.241901
 O         1.909048        -1.311192        -0.333621
 C         1.394955         0.045329        -0.061522
 C        -0.181964        -0.084999        -0.149534
 C         2.195105         1.020573        -0.979804
 C         3.422124         0.667465        -0.103403
 O         4.654305         1.307833         0.100698
 C         2.530316         0.235178         1.039749
 H         3.905270        -2.580627         1.258624
 H         4.691616        -2.372820        -0.264670
 H         5.232279        -1.302949         0.880793
 H        -0.626404        -0.431132         0.782004
 H        -0.492167         1.017231        -0.383140
 H        -0.239094        -0.439579        -1.143071
 H         2.139510         0.874207        -2.036938
 H         1.832264         2.044912        -0.602182
 H         4.485047         2.066867         0.692269
 H         2.596168         0.508634         2.137720
