19
Iteration:  4430charge 0 multiplicity 1
 C         4.220450        -1.709560         0.628290
 C         3.142542        -0.850343         0.390723
 O         2.084344        -1.293209        -0.395382
 C         1.382891        -0.049730        -0.161315
 C        -0.078275        -0.018691        -0.022104
 C         2.217133         0.910520        -1.074650
 C         3.392550         0.648963        -0.112717
 O         4.650879         1.262757         0.009020
 C         2.355295         0.256850         1.054505
 H         4.047206        -2.586827         1.329545
 H         4.856625        -1.829919        -0.238352
 H         4.835677        -1.009779         1.278073
 H        -0.714085        -0.801966         0.559015
 H        -0.311913         0.906879         0.547482
 H        -0.592252         0.135181        -0.931888
 H         2.476260         0.540558        -2.059097
 H         2.066637         2.020725        -1.132260
 H         4.440311         2.000375         0.660312
 H         2.273930         0.413290         2.189116
