19
Iteration:   848
 C         4.220015        -1.829459         0.696192
 C         3.321350        -0.817961         0.136473
 O         1.985093        -1.262380        -0.543203
 C         1.386660         0.040093         0.055367
 C        -0.072667        -0.081744        -0.062971
 C         2.212289         1.048983        -0.922530
 C         3.368557         0.614417        -0.031395
 O         4.582395         1.331008        -0.019634
 C         2.417518         0.138905         1.106024
 H         3.595897        -2.570417         1.118905
 H         4.790698        -2.385223        -0.067325
 H         4.955975        -1.372195         1.448850
 H        -0.475060        -0.828348         0.582530
 H        -0.574029         0.852216         0.058145
 H        -0.147287        -0.243750        -1.177031
 H         2.207463         0.818911        -2.031482
 H         2.051177         2.106734        -0.722008
 H         4.346139         2.159406         0.486383
 H         2.654891         0.569477         2.036115
