19
Iteration:  1795
 C         4.356781        -1.740128         0.521292
 C         3.202095        -0.795282         0.367828
 O         1.972065        -1.347125        -0.337115
 C         1.373245        -0.003712        -0.082402
 C        -0.116320         0.021394        -0.143571
 C         2.252442         1.017352        -0.994827
 C         3.322714         0.693352        -0.031481
 O         4.653336         1.163108         0.027723
 C         2.368476         0.239627         1.100703
 H         4.184472        -2.310120         1.466792
 H         4.426681        -2.326282        -0.382815
 H         5.207106        -1.219240         0.848070
 H        -0.581780        -0.655794         0.585919
 H        -0.506607         1.025426         0.003284
 H        -0.407627        -0.420445        -1.150241
 H         2.447254         0.661862        -2.063784
 H         1.747386         1.974525        -0.990071
 H         4.812765         2.136018         0.139118
 H         2.280483         0.445557         2.109093
