19
Iteration:   340charge 0 multiplicity 1
 C         4.276837        -1.786637         0.715808
 C         3.293641        -0.754533         0.238812
 O         2.023500        -1.299436        -0.597890
 C         1.356486        -0.039542        -0.111037
 C        -0.119152        -0.044751        -0.011858
 C         2.115866         1.053999        -0.905532
 C         3.358129         0.718622        -0.003123
 O         4.701800         1.180025         0.057223
 C         2.402534         0.208024         1.023381
 H         3.771133        -2.582415         1.244611
 H         4.590750        -2.253226        -0.211435
 H         5.183770        -1.536405         1.307523
 H        -0.562645        -0.783391         0.635198
 H        -0.413203         0.901814         0.371806
 H        -0.507303        -0.142328        -1.115299
 H         2.066770         0.912524        -1.940126
 H         1.637550         2.028946        -0.652200
 H         4.663755         2.134950        -0.037743
 H         2.488631         0.528083         2.144764
