19
Iteration:   528
 C         4.251015        -1.771771         0.612976
 C         3.208989        -0.850494         0.288672
 O         1.987867        -1.254234        -0.489978
 C         1.369191         0.051209        -0.154726
 C        -0.175376        -0.099626        -0.091266
 C         2.264496         1.023699        -0.937907
 C         3.368055         0.666542        -0.022600
 O         4.646929         1.262042        -0.000883
 C         2.475028         0.188580         1.150676
 H         3.877986        -2.665898         1.203298
 H         4.803196        -2.131644        -0.197893
 H         4.963343        -1.339586         1.259853
 H        -0.399060        -0.976726         0.596105
 H        -0.589624         0.683194         0.633101
 H        -0.612926        -0.158310        -1.101748
 H         2.602792         0.805045        -1.992742
 H         1.922564         2.074055        -0.779744
 H         4.334258         2.098983         0.410314
 H         2.535056         0.552222         2.125038
