19
Iteration:  3521charge 0 multiplicity 1
 C         4.277698        -1.800570         0.707265
 C         3.215962        -0.772571         0.361833
 O         1.980228        -1.324287        -0.302670
 C         1.359300         0.054062        -0.119733
 C        -0.163606        -0.078062        -0.140018
 C         2.291645         1.067096        -1.018360
 C         3.402264         0.636298        -0.082998
 O         4.615777         1.205855        -0.078198
 C         2.433415         0.220109         1.059255
 H         4.183455        -2.664491         1.343321
 H         4.756766        -2.020693        -0.247450
 H         5.041348        -1.136451         1.192164
 H        -0.512606        -0.943817         0.509801
 H        -0.646918         0.843366         0.207373
 H        -0.586764        -0.205052        -1.252376
 H         2.371128         1.011516        -2.093126
 H         2.030359         2.110329        -0.856189
 H         4.640734         2.027384         0.421955
 H         2.117127         0.514340         2.120539
