19
Iteration:  3161
 C         4.338886        -1.739090         0.674344
 C         3.198054        -0.814063         0.355898
 O         2.035467        -1.312090        -0.395556
 C         1.394611         0.001791        -0.128151
 C        -0.152689         0.059204        -0.076904
 C         2.162549         0.897234        -1.017016
 C         3.375757         0.633953        -0.097536
 O         4.608800         1.178051         0.011305
 C         2.408518         0.271710         1.019286
 H         4.158801        -2.404033         1.502497
 H         4.639972        -2.220946        -0.243351
 H         5.269983        -1.113756         0.952565
 H        -0.629947        -0.468166         0.765709
 H        -0.435345         1.052117         0.019114
 H        -0.491555        -0.129639        -1.143679
 H         2.434371         0.825943        -2.026263
 H         1.748321         1.847717        -0.743236
 H         4.598242         1.863406         0.717374
 H         2.419955         0.717707         2.043704
