19
Iteration:  1356
 C         4.189783        -1.897702         0.713535
 C         3.190368        -0.803853         0.262007
 O         2.118171        -1.300969        -0.593888
 C         1.445237         0.033404        -0.114210
 C        -0.114771         0.031079         0.032861
 C         2.242391         0.978822        -0.976340
 C         3.337393         0.712973        -0.021435
 O         4.580887         1.363478        -0.044153
 C         2.355417         0.147541         1.087525
 H         3.703231        -2.546000         1.548984
 H         4.547137        -2.369373        -0.219451
 H         5.198753        -1.431277         1.098816
 H        -0.110349        -0.736475         0.810896
 H        -0.363364         0.954884         0.576499
 H        -0.580247        -0.264938        -0.920257
 H         2.389936         0.549120        -1.998603
 H         1.964270         2.033586        -1.106516
 H         4.796799         1.698909         0.837636
 H         2.248633         0.254638         2.218007
