19
Iteration:  2534
 C         4.220416        -1.911448         0.731000
 C         3.188188        -0.838035         0.321860
 O         2.097601        -1.177068        -0.474822
 C         1.407067         0.013128        -0.132632
 C        -0.045525        -0.011311        -0.012456
 C         2.193112         0.966819        -1.022954
 C         3.366436         0.698488        -0.014844
 O         4.622185         1.251029        -0.106081
 C         2.355366         0.208247         1.135696
 H         3.876542        -2.679501         1.434156
 H         4.537854        -2.303142        -0.237475
 H         5.119885        -1.447976         1.199066
 H        -0.514054        -0.699646         0.785176
 H        -0.403516         1.083915         0.121956
 H        -0.419817        -0.427164        -0.931811
 H         2.426559         0.864437        -2.093328
 H         1.627175         1.942920        -0.857825
 H         4.465880         2.212771         0.011663
 H         2.281659         0.324755         2.248549
