19
Iteration:   404charge 0 multiplicity 1
 C         4.379954        -1.821772         0.501963
 C         3.195528        -0.803226         0.237734
 O         2.061437        -1.308260        -0.303729
 C         1.382089         0.010935        -0.093370
 C        -0.168515         0.064157        -0.119715
 C         2.080001         0.977668        -1.094121
 C         3.333156         0.727946         0.009042
 O         4.675227         1.224738         0.157591
 C         2.435107         0.151936         1.080123
 H         4.106360        -2.600987         1.058167
 H         4.608570        -2.306100        -0.443182
 H         5.249254        -1.244089         0.886203
 H        -0.573670        -0.711475         0.504948
 H        -0.579692         1.046472        -0.037185
 H        -0.461002        -0.220975        -1.211310
 H         2.227030         0.606675        -2.080472
 H         1.662738         2.014441        -0.952430
 H         4.624037         2.098532         0.623786
 H         2.435507         0.522835         2.197953
