19
Iteration:  3878charge 0 multiplicity 1
 C         4.279288        -1.662181         0.716759
 C         3.157763        -0.822395         0.346373
 O         2.119114        -1.381555        -0.385958
 C         1.416961        -0.035447        -0.143090
 C        -0.193710        -0.006087        -0.077112
 C         2.190099         0.976233        -0.967861
 C         3.339495         0.652637        -0.126893
 O         4.610117         1.156496        -0.053258
 C         2.466914         0.305550         1.056313
 H         3.879342        -2.564448         1.143043
 H         4.891797        -1.900851        -0.148662
 H         4.776714        -1.056125         1.403376
 H        -0.665855        -0.915854         0.344600
 H        -0.331755         1.004504         0.336012
 H        -0.583756         0.144455        -1.052265
 H         2.356850         1.025891        -2.000274
 H         1.802633         1.918347        -0.692715
 H         4.652466         1.964573         0.448551
 H         2.406459         0.631968         2.046691
