19
Iteration:  1951
 C         4.375077        -1.787300         0.560780
 C         3.224185        -0.802565         0.373487
 O         1.955306        -1.307965        -0.329570
 C         1.358326        -0.000160        -0.031487
 C        -0.183919        -0.018193        -0.139119
 C         2.234478         1.064243        -1.074433
 C         3.288356         0.676030        -0.132174
 O         4.594209         1.155930         0.099800
 C         2.508813         0.265027         1.081699
 H         3.963728        -2.524500         1.125325
 H         4.621160        -2.313801        -0.345548
 H         5.268472        -1.267747         0.994104
 H        -0.539853        -0.832108         0.431068
 H        -0.641122         0.956104         0.026605
 H        -0.305483        -0.422909        -1.148534
 H         2.232193         0.706348        -2.083563
 H         2.112696         2.170847        -0.844174
 H         4.777261         2.082390         0.140661
 H         2.778917         0.672501         2.182723
