19
Iteration:  1556charge 0 multiplicity 1
 C         4.153457        -1.883011         0.656548
 C         3.180499        -0.799343         0.336359
 O         2.020392        -1.269523        -0.509182
 C         1.451287         0.022402        -0.153021
 C        -0.039923        -0.044417         0.032057
 C         2.257960         0.941745        -0.964461
 C         3.455808         0.681084        -0.030784
 O         4.627693         1.349221        -0.011443
 C         2.311595         0.237355         1.085696
 H         4.043473        -2.814940         1.319522
 H         4.227504        -2.506088        -0.328209
 H         5.087129        -1.395860         1.007066
 H        -0.264848        -0.803387         0.755691
 H        -0.269196         0.961726         0.104819
 H        -0.433506        -0.607834        -0.854487
 H         2.376109         0.598002        -2.021117
 H         1.859180         1.956915        -0.930176
 H         4.287687         2.277366         0.107089
 H         2.202494         0.757798         2.078788
