19
Iteration:  2734charge 0 multiplicity 1
 C         4.150130        -1.856999         0.793660
 C         3.109402        -0.791730         0.340918
 O         2.077421        -1.205809        -0.580829
 C         1.445129         0.016948        -0.108145
 C        -0.092875        -0.143858         0.045101
 C         2.303383         1.064205        -0.979484
 C         3.332811         0.717163        -0.060717
 O         4.692619         1.241618        -0.129398
 C         2.330960         0.170467         1.097356
 H         3.617731        -2.633640         1.392199
 H         4.712633        -2.258270        -0.080850
 H         4.889685        -1.194914         1.230564
 H        -0.213969        -0.847531         0.831396
 H        -0.560528         0.719682         0.464329
 H        -0.621209        -0.424704        -1.007161
 H         2.451015         0.820183        -2.099116
 H         2.148943         2.190499        -0.747927
 H         4.709856         2.198576         0.071780
 H         2.330861         0.307621         2.211813
