19
Iteration:  3193charge 0 multiplicity 1
 C         4.307810        -1.642368         0.640221
 C         3.168066        -0.804543         0.367419
 O         1.948745        -1.325822        -0.366111
 C         1.423835         0.037537        -0.108624
 C        -0.082964         0.030690        -0.109379
 C         2.275931         0.949540        -1.020136
 C         3.338115         0.717265        -0.020893
 O         4.660001         1.141206        -0.041022
 C         2.350877         0.170412         1.119455
 H         4.274656        -2.475985         1.363202
 H         4.430667        -2.268373        -0.251964
 H         5.333301        -1.121781         0.825768
 H        -0.651099        -0.457121         0.685573
 H        -0.605283         0.894163        -0.381633
 H        -0.405058        -0.607096        -0.994912
 H         2.629505         0.774201        -2.047403
 H         1.688345         1.897848        -1.007446
 H         4.682168         2.077021         0.124847
 H         2.232342         0.299150         2.245499
