19
Iteration:  3588
 C         4.341761        -1.746676         0.688623
 C         3.226381        -0.877269         0.312696
 O         1.903676        -1.357096        -0.424224
 C         1.460448        -0.047043        -0.139459
 C        -0.111658        -0.009137        -0.051121
 C         2.267524         0.941041        -0.974814
 C         3.377014         0.656638        -0.050927
 O         4.599422         1.272243         0.058760
 C         2.388912         0.338138         0.973899
 H         3.925504        -2.424025         1.477896
 H         4.670460        -2.393303        -0.144897
 H         5.180619        -1.177166         0.899702
 H        -0.484022        -0.306080         0.956800
 H        -0.598398         0.954631        -0.176500
 H        -0.645836        -0.558967        -1.021778
 H         2.285760         0.836873        -2.056463
 H         1.874141         1.922807        -0.688448
 H         4.768153         2.254336         0.020023
 H         2.299750         0.736428         1.934611
