19
Iteration:  3819
 C         4.152431        -1.782599         0.732962
 C         3.238049        -0.741609         0.355136
 O         2.069980        -1.294986        -0.426729
 C         1.389090         0.014248        -0.186914
 C        -0.070462        -0.109680        -0.026874
 C         2.286382         0.977245        -0.963311
 C         3.434762         0.585860        -0.089189
 O         4.625133         1.315178        -0.103252
 C         2.328225         0.253520         1.095031
 H         3.582927        -2.465807         1.399232
 H         4.459625        -2.338530        -0.172993
 H         5.127896        -1.498946         1.258114
 H        -0.391101        -0.770923         0.727070
 H        -0.571972         0.783276         0.403257
 H        -0.588611        -0.296171        -1.018112
 H         2.387742         0.834580        -2.045348
 H         2.001229         1.971638        -0.552607
 H         4.336635         2.245907        -0.300027
 H         2.170604         0.412640         2.231725
