19
Iteration:  2802
 C         4.378585        -1.855111         0.568683
 C         3.143322        -0.807358         0.324938
 O         2.004838        -1.344341        -0.343989
 C         1.372114         0.046569        -0.126307
 C        -0.102133         0.074551        -0.106052
 C         2.259458         0.949996        -1.014411
 C         3.352988         0.628429        -0.052778
 O         4.599537         1.294255         0.037352
 C         2.368361         0.229912         1.087356
 H         4.252765        -2.537947         1.461363
 H         4.713866        -2.429201        -0.323742
 H         5.233161        -1.177419         0.728314
 H        -0.573853        -0.730917         0.537476
 H        -0.500197         0.998617         0.253804
 H        -0.492611        -0.141563        -1.189166
 H         2.179256         0.530650        -2.075747
 H         1.957386         2.025981        -0.927093
 H         4.773164         2.018367         0.632195
 H         2.242917         0.602507         2.092872
