19
Iteration:  3801
 C         4.198321        -1.936009         0.763801
 C         3.198023        -0.863109         0.394531
 O         2.129845        -1.312252        -0.421431
 C         1.447238        -0.046242        -0.152126
 C        -0.070955        -0.056742        -0.009042
 C         2.149612         1.041289        -1.077923
 C         3.338489         0.773112        -0.099695
 O         4.634536         1.311485        -0.048918
 C         2.386728         0.290116         1.069590
 H         3.773537        -2.665307         1.406880
 H         4.449693        -2.428343        -0.166718
 H         5.145239        -1.455198         1.035156
 H        -0.452343        -0.630723         0.934440
 H        -0.454026         1.052879        -0.001292
 H        -0.456247        -0.350039        -0.958157
 H         2.203332         0.709209        -2.128296
 H         1.687308         2.013238        -0.968884
 H         4.666630         2.294315         0.125897
 H         2.175257         0.605634         2.034864
