19
Iteration:  1806charge 0 multiplicity 1
 C         4.324113        -1.757338         0.562434
 C         3.108511        -0.839646         0.424285
 O         2.056913        -1.312920        -0.381208
 C         1.408072         0.023132        -0.162653
 C        -0.126563         0.054415        -0.132924
 C         2.136670         0.912211        -1.037926
 C         3.339182         0.744709         0.034363
 O         4.696561         1.191681         0.001301
 C         2.436071         0.244708         1.173448
 H         4.066372        -2.642705         1.224346
 H         4.442446        -2.267088        -0.394367
 H         5.247286        -1.274516         0.604188
 H        -0.281379        -0.654932         0.646717
 H        -0.664899         0.976208         0.071346
 H        -0.488121        -0.317853        -1.160555
 H         2.354632         0.562671        -2.107272
 H         1.864276         1.953460        -1.028696
 H         4.492915         2.135656         0.208310
 H         2.133010         0.444816         2.149188
