19
Iteration:  3571charge 0 multiplicity 1
 C         4.314703        -1.756835         0.634458
 C         3.171240        -0.772454         0.291481
 O         2.077616        -1.354731        -0.311222
 C         1.326076         0.007325        -0.129165
 C        -0.141436        -0.005792        -0.126308
 C         2.211072         1.024155        -1.061609
 C         3.305390         0.668711        -0.083187
 O         4.685578         1.185918         0.068046
 C         2.424276         0.234361         1.107172
 H         4.051918        -2.449126         1.444086
 H         4.556944        -2.344679        -0.262499
 H         5.225769        -1.257661         1.119667
 H        -0.501454        -0.449192         0.792394
 H        -0.526890         1.037733        -0.304145
 H        -0.504142        -0.609104        -0.869672
 H         2.250876         0.763586        -2.164316
 H         1.800867         2.059894        -1.029874
 H         4.507340         2.153211        -0.152980
 H         2.326561         0.560306         2.189237
