19
Iteration:  3502charge 0 multiplicity 1
 C         4.283466        -1.736035         0.731677
 C         3.137754        -0.863172         0.330767
 O         2.006625        -1.343393        -0.426194
 C         1.419462         0.003488        -0.098523
 C        -0.058517        -0.019273        -0.089853
 C         2.123695         0.982751        -1.012042
 C         3.406387         0.623864        -0.118358
 O         4.667633         1.237296        -0.001245
 C         2.426493         0.329871         1.047188
 H         3.751208        -2.522367         1.389747
 H         4.697655        -2.307910        -0.131330
 H         4.935880        -1.320069         1.452168
 H        -0.450301        -0.956760         0.320843
 H        -0.366054         0.826648         0.465097
 H        -0.506506         0.031030        -1.156431
 H         2.148113         0.872380        -2.131899
 H         1.659756         2.003541        -0.855030
 H         4.612761         2.140572         0.392434
 H         2.598690         0.631572         2.058273
