19
Iteration:  3015
 C         4.337302        -1.732385         0.589745
 C         3.150792        -0.791410         0.391250
 O         2.089350        -1.342016        -0.424438
 C         1.418366         0.032164        -0.066882
 C        -0.096311         0.057743        -0.136683
 C         2.212486         0.951805        -1.047965
 C         3.289677         0.651549        -0.068860
 O         4.578536         1.102568         0.029452
 C         2.416442         0.289542         1.153377
 H         4.355009        -2.578820         1.336111
 H         4.580030        -2.131009        -0.450436
 H         5.084195        -1.007685         0.788618
 H        -0.544763        -0.353335         0.729871
 H        -0.287164         1.191588         0.081239
 H        -0.512560        -0.443716        -0.942864
 H         2.295701         0.586377        -2.056992
 H         1.710379         1.907543        -0.880573
 H         4.591740         1.992813         0.363274
 H         2.028774         0.712980         2.044894
