19
Iteration:  1896
 C         4.191137        -1.826848         0.792851
 C         3.192110        -0.846093         0.231242
 O         2.136140        -1.223530        -0.485517
 C         1.385029         0.013672        -0.191592
 C        -0.107936        -0.023267         0.044593
 C         2.274045         1.072199        -0.971050
 C         3.309252         0.641603        -0.064127
 O         4.593119         1.254215        -0.106843
 C         2.397548         0.138334         1.090148
 H         3.560177        -2.498349         1.270203
 H         4.812896        -2.248576         0.018724
 H         4.841108        -1.284795         1.533197
 H        -0.192912        -0.742808         0.793158
 H        -0.456035         0.959676         0.436484
 H        -0.596383        -0.236507        -0.936596
 H         2.442507         0.799321        -2.000009
 H         1.939137         2.160174        -0.994572
 H         4.698110         2.120534         0.317510
 H         2.322003         0.008760         2.300946
