19
Iteration:  1497
 C         4.254554        -1.805029         0.770582
 C         3.165562        -0.832628         0.213057
 O         1.983645        -1.281219        -0.493631
 C         1.428964         0.028719        -0.073924
 C        -0.042292        -0.024904        -0.051759
 C         2.068695         1.019556        -0.991111
 C         3.434259         0.636941        -0.178864
 O         4.661511         1.244848         0.044474
 C         2.519322         0.192316         1.073534
 H         3.715103        -2.621162         1.248499
 H         5.019848        -2.000854         0.148686
 H         4.776030        -1.171153         1.509402
 H        -0.535606        -0.880029         0.408784
 H        -0.566506         0.741813         0.525529
 H        -0.301746         0.193884        -1.065363
 H         1.890103         0.802696        -2.058244
 H         1.638366         2.017564        -0.806036
 H         4.505090         2.082294         0.510625
 H         2.326150         0.396140         2.076371
