19
Iteration:   640charge 0 multiplicity 1
 C         4.176164        -1.828004         0.684670
 C         3.197194        -0.744925         0.274642
 O         2.175658        -1.211589        -0.570929
 C         1.386127        -0.006407        -0.133754
 C        -0.179343        -0.150746         0.034589
 C         2.235785         1.124543        -0.932236
 C         3.376867         0.685531         0.009342
 O         4.669949         1.224764        -0.087548
 C         2.342008         0.119055         1.084422
 H         3.745501        -2.519096         1.374167
 H         4.496129        -2.365930        -0.177423
 H         4.963260        -1.309677         1.242140
 H        -0.493348        -0.702905         0.915094
 H        -0.630974         0.876535         0.207673
 H        -0.676562        -0.444753        -0.906892
 H         2.446145         0.901771        -1.991785
 H         2.052092         2.109276        -0.591991
 H         4.686422         1.996351         0.477157
 H         2.202774         0.422896         2.172613
