19
Iteration:  2403charge 0 multiplicity 1
 C         4.180836        -1.831528         0.770141
 C         3.258527        -0.802504         0.199674
 O         1.965085        -1.193647        -0.433909
 C         1.369766        -0.022209        -0.067002
 C        -0.089392        -0.066463        -0.096743
 C         2.087768         1.033261        -0.980699
 C         3.406794         0.580438        -0.146734
 O         4.669363         1.294954         0.048711
 C         2.568425         0.190562         1.098557
 H         3.604106        -2.379506         1.605362
 H         4.448101        -2.626277         0.020866
 H         5.162171        -1.504470         1.144049
 H        -0.607355        -0.978747         0.587970
 H        -0.428888         1.043775         0.182891
 H        -0.370757        -0.282476        -1.109721
 H         2.164156         0.883808        -2.056854
 H         1.842539         2.043394        -0.691924
 H         4.475701         2.106531        -0.382819
 H         2.899230         0.659530         1.996361
