19
Iteration:  1824
 C         4.231712        -1.831897         0.561860
 C         3.148513        -0.819330         0.449259
 O         2.069768        -1.249588        -0.444250
 C         1.407377        -0.020517        -0.072217
 C        -0.108996        -0.031891        -0.063738
 C         2.278755         0.929357        -1.033535
 C         3.375433         0.630473        -0.040969
 O         4.609457         1.271737        -0.010186
 C         2.359155         0.281377         1.090310
 H         3.875403        -2.620128         1.332968
 H         4.489909        -2.090174        -0.487656
 H         5.074133        -1.198272         0.937994
 H        -0.489567        -0.731540         0.758673
 H        -0.297709         0.993871         0.265255
 H        -0.416830        -0.084740        -1.070864
 H         2.400844         0.534267        -2.063883
 H         1.934246         1.955030        -1.138413
 H         4.646248         2.175462         0.373248
 H         2.343234         0.620807         2.132113
