19
Iteration:   892charge 0 multiplicity 1
 C         4.340094        -1.793314         0.575092
 C         3.197374        -0.792872         0.310999
 O         2.101047        -1.375892        -0.459308
 C         1.411858        -0.062816        -0.173256
 C        -0.127878         0.067928         0.024245
 C         2.248554         1.027144        -0.982661
 C         3.333819         0.705147        -0.083094
 O         4.632562         1.233585         0.057939
 C         2.253791         0.175744         1.090610
 H         3.923177        -2.674606         0.947935
 H         4.971216        -2.104236        -0.288319
 H         5.040347        -1.392861         1.361525
 H        -0.468037        -0.937014         0.320759
 H        -0.428844         0.684061         0.828360
 H        -0.636871         0.507348        -0.879474
 H         2.416778         0.940188        -2.085229
 H         1.781790         1.979117        -0.797844
 H         4.570601         2.200152         0.276547
 H         1.935672         0.706133         2.050394
