19
Iteration:  4940charge 0 multiplicity 1
 C         4.210973        -1.840346         0.558156
 C         3.182928        -0.834156         0.262880
 O         1.947368        -1.285058        -0.307435
 C         1.407436         0.079222        -0.053824
 C        -0.070111        -0.188719        -0.161935
 C         2.180561         1.079782        -0.972177
 C         3.421021         0.643815        -0.034806
 O         4.646457         1.300194         0.102937
 C         2.426060         0.343647         1.068150
 H         3.950507        -2.620545         1.309755
 H         4.428603        -2.321716        -0.454927
 H         5.246642        -1.354616         0.714762
 H        -0.597829        -0.915085         0.583333
 H        -0.568141         0.783610         0.139105
 H        -0.415749        -0.263222        -1.138610
 H         2.457748         0.703876        -1.984860
 H         1.965821         2.201132        -0.990335
 H         5.314239         1.209661        -0.583221
 H         2.336251         0.506955         2.152545
