19
Iteration:  3984charge 0 multiplicity 1
 C         4.138738        -1.777635         0.749433
 C         3.138168        -0.835054         0.318533
 O         2.082766        -1.200555        -0.492638
 C         1.440687        -0.044703        -0.102323
 C        -0.181949        -0.153851        -0.102363
 C         2.290593         1.000622        -0.962871
 C         3.371666         0.679071         0.023167
 O         4.666992         1.267182        -0.157502
 C         2.442774         0.251933         1.150892
 H         3.911807        -2.227210         1.721158
 H         4.465006        -2.478493        -0.107695
 H         5.043533        -1.030809         0.949907
 H        -0.570342        -0.688167         0.780770
 H        -0.746219         0.845038         0.098631
 H        -0.372737        -0.646879        -1.041572
 H         2.461470         0.640665        -2.030785
 H         1.812564         2.031099        -0.713374
 H         4.544660         2.137490         0.195344
 H         2.501566         0.470659         2.106950
