19
Iteration:   541
 C         4.256446        -1.733311         0.544529
 C         3.087000        -0.788982         0.297783
 O         1.969843        -1.321304        -0.492811
 C         1.400902         0.024578        -0.057698
 C        -0.069248        -0.048772        -0.048742
 C         2.295184         0.938763        -0.993309
 C         3.403363         0.682707         0.069319
 O         4.646190         1.304291         0.021077
 C         2.411970         0.203269         1.133119
 H         3.849744        -2.689269         1.038001
 H         4.558457        -1.982844        -0.477365
 H         5.019907        -1.206796         1.096927
 H        -0.304942        -1.060001         0.366341
 H        -0.693668         0.879763         0.219223
 H        -0.432998        -0.191398        -1.074656
 H         2.296591         0.426285        -2.028053
 H         1.986797         1.975503        -1.100135
 H         4.816472         2.178667         0.388906
 H         2.350467         0.169931         2.240979
