19
Iteration:  1265charge 0 multiplicity 1
 C         4.313178        -1.737776         0.519325
 C         3.163187        -0.807233         0.350360
 O         2.014746        -1.317061        -0.397715
 C         1.381176        -0.015996        -0.147695
 C        -0.119665         0.017532        -0.150344
 C         2.352235         1.029554        -0.948241
 C         3.311092         0.693027         0.141830
 O         4.615917         1.184496        -0.098433
 C         2.348055         0.164677         1.203582
 H         3.959730        -2.678215         1.052618
 H         4.948149        -1.934719        -0.394946
 H         5.090145        -1.224466         1.085865
 H        -0.386917        -0.825921         0.507037
 H        -0.617372         0.867050         0.449528
 H        -0.514837         0.043273        -1.165951
 H         2.546240         0.697783        -1.934511
 H         2.005519         2.119449        -0.903020
 H         4.609994         2.183088        -0.081117
 H         2.007206         0.305841         2.158417
