19
Iteration:  3481charge 0 multiplicity 1
 C         4.197612        -1.751267         0.805833
 C         3.237640        -0.847594         0.209612
 O         2.118423        -1.265004        -0.451737
 C         1.434373        -0.026567        -0.093744
 C        -0.137792         0.053651         0.043296
 C         2.212038         0.941159        -1.074071
 C         3.318716         0.711794        -0.137785
 O         4.610240         1.217496         0.023939
 C         2.446402         0.197023         1.031964
 H         3.605048        -2.551228         1.387201
 H         4.691058        -2.309737        -0.046714
 H         4.890983        -1.294291         1.490628
 H        -0.484223        -0.903355         0.380080
 H        -0.468231         0.866713         0.630552
 H        -0.575047         0.034476        -0.954868
 H         2.315660         0.502144        -2.119798
 H         1.929109         2.045589        -1.132700
 H         4.494121         2.187328         0.208139
 H         2.173640         0.406887         2.035605
