19
Iteration:  2285charge 0 multiplicity 1
 C         4.341308        -1.769578         0.714991
 C         3.125960        -0.837313         0.421837
 O         2.031665        -1.288390        -0.494342
 C         1.357926        -0.012289        -0.033457
 C        -0.101772         0.027985        -0.065999
 C         2.263378         1.003751        -0.989043
 C         3.344155         0.636431        -0.093785
 O         4.636578         1.166170        -0.081785
 C         2.394068         0.291115         1.098075
 H         4.084936        -2.825395         0.986279
 H         4.665608        -1.677997        -0.330925
 H         5.138341        -1.342559         1.334735
 H        -0.512585        -0.728240         0.501340
 H        -0.496800         1.031667         0.281732
 H        -0.585827        -0.220935        -1.022342
 H         2.569121         0.727569        -2.090996
 H         1.810427         2.012309        -0.896852
 H         4.520871         2.134399         0.157180
 H         2.146034         0.322025         2.124708
