19
Iteration:  2838
 C         4.249027        -1.697766         0.462646
 C         3.176462        -0.826699         0.371975
 O         1.991291        -1.376878        -0.313626
 C         1.434877         0.006749        -0.124519
 C        -0.094566         0.030642        -0.130389
 C         2.247524         0.918934        -1.041995
 C         3.406765         0.682871        -0.009697
 O         4.595848         1.230487         0.039373
 C         2.418993         0.236838         1.135621
 H         3.933443        -2.511851         1.110934
 H         4.629482        -2.059844        -0.497882
 H         5.007343        -1.167640         1.154179
 H        -0.515984        -0.586519         0.754549
 H        -0.406539         1.166064        -0.033562
 H        -0.499958        -0.227029        -1.079849
 H         2.464334         0.593800        -2.056381
 H         1.829617         1.901852        -1.098615
 H         4.540841         2.088563         0.448032
 H         2.285785         0.482463         2.186768
