19
Iteration:  4876
 C         4.328819        -1.659377         0.714773
 C         3.165370        -0.898539         0.151444
 O         1.985809        -1.380545        -0.494705
 C         1.423941        -0.072282        -0.148706
 C        -0.106570         0.175896         0.023999
 C         2.233638         0.963684        -0.970414
 C         3.369371         0.645779        -0.054600
 O         4.518798         1.384426         0.103018
 C         2.449906         0.093009         1.038729
 H         3.863169        -2.664511         0.822995
 H         4.915053        -1.774486        -0.128519
 H         4.815131        -1.439767         1.638319
 H        -0.267712        -0.229358         1.105003
 H        -0.327472         1.270504        -0.024310
 H        -0.657717        -0.440475        -0.653956
 H         2.314123         0.590814        -2.006575
 H         1.820052         1.965948        -0.991746
 H         5.295098         0.836681        -0.213694
 H         2.506138         0.411321         2.113431
