19
Iteration:  3655
 C         4.193707        -1.776776         0.776232
 C         3.110684        -0.864684         0.371974
 O         2.075191        -1.397755        -0.391503
 C         1.406958         0.053243        -0.178192
 C        -0.061837        -0.035845        -0.043199
 C         2.162036         1.007281        -1.053674
 C         3.424931         0.690780        -0.108145
 O         4.655302         1.321490        -0.066132
 C         2.453659         0.227752         1.018044
 H         3.644560        -2.609698         1.264455
 H         4.769722        -2.194956        -0.057736
 H         4.925555        -1.322328         1.388034
 H        -0.197297        -0.981706         0.475246
 H        -0.459727         0.729887         0.673388
 H        -0.557386         0.144624        -1.118152
 H         1.947144         0.788760        -2.121742
 H         1.798275         2.003372        -0.729360
 H         4.580912         2.015853         0.578819
 H         2.315940         0.586572         2.023366
