19
Iteration:   716charge 0 multiplicity 1
 C         4.345453        -1.843448         0.619297
 C         3.099937        -0.922319         0.313779
 O         2.076744        -1.309934        -0.501886
 C         1.465854        -0.003722        -0.094574
 C        -0.067301         0.056759        -0.040844
 C         2.165028         0.959026        -1.000172
 C         3.342709         0.695426         0.048405
 O         4.601138         1.325305        -0.021221
 C         2.379279         0.222129         1.083565
 H         4.147271        -2.853681         1.024352
 H         4.759496        -1.933518        -0.348432
 H         5.041014        -1.353307         1.317360
 H        -0.644476        -0.834104         0.229808
 H        -0.385621         0.745731         0.809982
 H        -0.390471         0.302961        -1.094965
 H         2.224794         0.651679        -2.100141
 H         1.749726         1.924558        -0.722592
 H         4.457298         2.215500         0.404126
 H         2.157354         0.483170         2.151387
