19
Iteration:  3623
 C         4.261590        -1.775092         0.751618
 C         3.221566        -0.787390         0.252578
 O         2.117926        -1.360804        -0.461559
 C         1.365387         0.087056        -0.097319
 C        -0.115208         0.040685         0.000865
 C         2.281299         0.911530        -1.072259
 C         3.341932         0.687886        -0.046650
 O         4.548788         1.279933        -0.027684
 C         2.414732         0.204104         1.027977
 H         3.665967        -2.369537         1.477250
 H         4.565278        -2.470525        -0.036497
 H         5.054068        -1.424883         1.366706
 H        -0.375104        -0.761559         0.696243
 H        -0.533742         1.043811         0.325936
 H        -0.648795        -0.400256        -0.939485
 H         2.116304         0.460294        -2.056017
 H         1.918490         1.960913        -1.085006
 H         4.662151         1.981977         0.656684
 H         2.388360         0.414536         2.069803
