19
Iteration:    92
 C         4.111519        -1.825422         0.557257
 C         3.229778        -0.780913         0.191451
 O         2.106911        -1.342517        -0.497718
 C         1.410694        -0.066319        -0.135456
 C        -0.131629         0.060246        -0.055808
 C         2.144865         0.912575        -1.027330
 C         3.360058         0.709357         0.005255
 O         4.569591         1.432962         0.183168
 C         2.536541         0.183425         1.176140
 H         3.746889        -2.721785         1.161654
 H         4.616538        -2.207828        -0.346693
 H         5.032233        -1.375707         1.153147
 H        -0.479625        -0.587745         0.775637
 H        -0.215203         1.127733         0.224828
 H        -0.835657        -0.192111        -0.983000
 H         2.315861         0.500863        -2.058213
 H         1.728758         1.951834        -0.934275
 H         5.265673         0.995989        -0.322457
 H         2.786624         0.319383         2.286829
