19
Iteration:  1701
 C         4.199944        -1.969751         0.761694
 C         3.171541        -0.878622         0.336601
 O         2.000453        -1.265869        -0.482303
 C         1.443018         0.031267        -0.159005
 C        -0.070702        -0.085323         0.072365
 C         2.206017         1.023827        -1.066470
 C         3.447213         0.716218        -0.154177
 O         4.645807         1.372884         0.005554
 C         2.437845         0.260327         1.025709
 H         3.643304        -2.710527         1.263935
 H         4.844390        -2.379060        -0.066778
 H         4.576271        -1.572712         1.722395
 H        -0.332226        -0.984203         0.568672
 H        -0.411789         0.854086         0.517343
 H        -0.395889        -0.186768        -0.940351
 H         2.113559         0.806018        -2.085015
 H         1.781641         2.052064        -0.937848
 H         4.427485         2.307863         0.127994
 H         2.133294         0.492904         2.108072
