19
Iteration:  1709charge 0 multiplicity 1
 C         4.116504        -1.905744         0.764527
 C         3.162980        -0.870591         0.358599
 O         2.029707        -1.304255        -0.503435
 C         1.452059         0.037461        -0.131391
 C        -0.028354        -0.082064         0.048914
 C         2.160821         1.025058        -1.065174
 C         3.431165         0.694689        -0.080675
 O         4.670141         1.374487        -0.035582
 C         2.418855         0.233148         1.026707
 H         3.543150        -2.778327         1.172218
 H         4.856882        -2.184278        -0.015754
 H         4.887237        -1.567769         1.467941
 H        -0.244711        -0.869702         0.755140
 H        -0.475190         0.809170         0.525059
 H        -0.569140        -0.152742        -1.013992
 H         2.356822         0.800827        -2.155599
 H         1.902685         2.081831        -0.965099
 H         4.454091         2.292692         0.224977
 H         2.257621         0.426540         2.023254
