19
Iteration:  1454charge 0 multiplicity 1
 C         4.305322        -1.698267         0.574092
 C         3.085273        -0.806283         0.421943
 O         2.060272        -1.284304        -0.473003
 C         1.405291        -0.033391        -0.139040
 C        -0.118950        -0.020824        -0.063518
 C         2.220416         1.026039        -0.964664
 C         3.384645         0.680048         0.042956
 O         4.744058         1.124484        -0.035176
 C         2.224865         0.234084         1.107531
 H         4.137840        -2.717929         1.002151
 H         4.739018        -1.814037        -0.404187
 H         5.126261        -1.092085         1.033405
 H        -0.202597        -0.745229         0.729800
 H        -0.464367         0.893299         0.363248
 H        -0.564478        -0.197156        -0.993480
 H         2.426940         0.699600        -1.998535
 H         1.939533         2.058518        -0.914220
 H         4.654741         2.076685        -0.092739
 H         1.986703         0.375841         2.114511
