19
Iteration:   112
 C         4.170172        -1.928279         0.644528
 C         3.239055        -0.821176         0.267866
 O         2.103189        -1.266532        -0.597576
 C         1.431003        -0.046868        -0.112955
 C        -0.053551         0.024272         0.118481
 C         2.239456         0.988097        -1.019253
 C         3.389722         0.678579        -0.045934
 O         4.481477         1.458772         0.150771
 C         2.403922         0.187203         0.993601
 H         3.496839        -2.701168         1.113121
 H         4.640577        -2.381274        -0.162134
 H         5.020226        -1.721762         1.366835
 H        -0.433211        -0.598362         0.913004
 H        -0.277019         1.019851         0.328847
 H        -0.514925        -0.289039        -0.868893
 H         2.413267         0.696428        -2.056512
 H         1.873273         2.044070        -0.865235
 H         5.236583         1.041126        -0.349312
 H         2.082042         0.409037         2.030474
