19
Iteration:  2236charge 0 multiplicity 1
 C         4.193873        -1.868714         0.782758
 C         3.209372        -0.836322         0.319202
 O         1.965828        -1.258752        -0.447775
 C         1.413879        -0.007314        -0.134507
 C        -0.064831        -0.082100        -0.009031
 C         2.145558         1.045960        -0.971446
 C         3.399176         0.668008        -0.128038
 O         4.677839         1.271634        -0.023643
 C         2.534484         0.254128         0.980251
 H         3.602827        -2.509456         1.438403
 H         4.665073        -2.307214        -0.105871
 H         4.863912        -1.269379         1.459014
 H        -0.745687        -0.943852         0.383815
 H        -0.515683         0.861898         0.060371
 H        -0.436548        -0.362254        -0.982370
 H         2.015612         1.064650        -2.014320
 H         1.933050         2.006110        -0.452701
 H         4.541678         2.203638         0.081712
 H         2.537077         0.527653         2.057974
