19
Iteration:  1357charge 0 multiplicity 1
 C         4.191669        -1.897560         0.712356
 C         3.205364        -0.803002         0.266820
 O         2.112804        -1.295890        -0.599206
 C         1.443062         0.017136        -0.114609
 C        -0.114967         0.036696         0.038688
 C         2.247066         0.979344        -0.976870
 C         3.330423         0.711595        -0.014099
 O         4.574047         1.361455        -0.044799
 C         2.359480         0.156906         1.090456
 H         3.688549        -2.539061         1.524050
 H         4.555199        -2.396470        -0.212423
 H         5.193637        -1.445521         1.070358
 H        -0.098695        -0.705073         0.822477
 H        -0.393278         0.932935         0.529962
 H        -0.550657        -0.252579        -0.932507
 H         2.419466         0.534095        -2.016818
 H         1.965183         2.007822        -1.071769
 H         4.813169         1.704566         0.814656
 H         2.202014         0.267505         2.188671
