19
Iteration:  1568
 C         4.206163        -1.835391         0.604108
 C         3.168756        -0.817530         0.328889
 O         2.072021        -1.293291        -0.459697
 C         1.383696         0.017760        -0.077534
 C        -0.113181        -0.067504        -0.037643
 C         2.270450         0.976682        -1.040115
 C         3.376234         0.616891        -0.061484
 O         4.630646         1.297232         0.060591
 C         2.434474         0.310732         1.093553
 H         3.730178        -2.357426         1.454463
 H         4.351166        -2.432511        -0.391595
 H         5.223890        -1.460654         0.812962
 H        -0.383970        -0.477194         0.905394
 H        -0.624507         0.861219         0.075653
 H        -0.595889        -0.505607        -0.899983
 H         2.368224         0.761641        -2.102575
 H         1.995777         2.042474        -0.860424
 H         4.479138         2.252825        -0.005911
 H         2.230997         0.395389         2.140730
