19
Iteration:  3444
 C         4.199399        -1.777319         0.764039
 C         3.045463        -0.944402         0.339959
 O         2.045773        -1.316913        -0.457030
 C         1.431873         0.006081        -0.163235
 C        -0.031454         0.023817         0.053144
 C         2.279259         1.002873        -1.034524
 C         3.430556         0.632616        -0.078226
 O         4.622763         1.342940        -0.030356
 C         2.409936         0.182648         0.945641
 H         3.758382        -2.527353         1.372091
 H         4.790134        -2.254707        -0.005232
 H         4.902808        -1.184079         1.397066
 H        -0.228923        -0.758773         0.858613
 H        -0.521879         0.934992         0.463513
 H        -0.592666        -0.253006        -0.928792
 H         2.532568         0.843260        -2.074982
 H         1.751533         1.939284        -0.815552
 H         4.538793         2.282644         0.172567
 H         1.927984         0.604912         1.887842
