19
Iteration:  4913
 C         4.318573        -1.755808         0.571617
 C         3.203073        -0.827439         0.378681
 O         1.998827        -1.311811        -0.388769
 C         1.414253         0.085228        -0.167402
 C        -0.106968         0.033862        -0.045199
 C         2.180849         0.949976        -1.032123
 C         3.351508         0.631238        -0.037180
 O         4.562379         1.245140         0.149467
 C         2.444753         0.203508         1.062172
 H         4.058299        -2.792219         0.839007
 H         4.703555        -1.830369        -0.490637
 H         5.203505        -1.389801         1.066479
 H        -0.475267        -0.437714         0.802959
 H        -0.664596         0.959899        -0.089926
 H        -0.596281        -0.531852        -0.948901
 H         2.515497         0.774598        -2.046499
 H         1.785315         1.957410        -0.946909
 H         5.135691         1.328108        -0.626330
 H         2.407994         0.745834         1.976691
