19
Iteration:  1215charge 0 multiplicity 1
 C         4.262385        -1.842621         0.648748
 C         3.219981        -0.776294         0.136603
 O         2.049518        -1.281256        -0.407395
 C         1.379136        -0.036650        -0.079171
 C        -0.173121        -0.030927        -0.035586
 C         2.183719         1.071226        -1.011190
 C         3.317236         0.672176        -0.111861
 O         4.649122         1.232014         0.153383
 C         2.517412         0.222357         0.991428
 H         3.622334        -2.419605         1.351420
 H         4.726526        -2.372870        -0.150372
 H         5.203674        -1.394478         1.093257
 H        -0.662286        -0.248156         0.930910
 H        -0.422151         1.030805        -0.267054
 H        -0.471760        -0.784027        -0.830574
 H         2.275786         0.856212        -2.128746
 H         1.627284         2.012075        -0.925620
 H         4.592981         1.859297         0.880728
 H         2.583011         0.460111         2.098542
