19
Iteration:  3362charge 0 multiplicity 1
 C         4.324595        -1.773528         0.614385
 C         3.156283        -0.920924         0.327123
 O         2.015990        -1.296656        -0.364451
 C         1.357839         0.005677        -0.115531
 C        -0.091445        -0.012631        -0.147932
 C         2.274278         1.005310        -1.020318
 C         3.337388         0.647948         0.041301
 O         4.650417         1.176361        -0.029391
 C         2.293510         0.345480         1.176896
 H         4.392378        -2.627346         1.396783
 H         4.668432        -2.318045        -0.323028
 H         5.016809        -1.022664         0.915485
 H        -0.374717        -0.638244         0.702660
 H        -0.525006         1.049813        -0.260376
 H        -0.412904        -0.632093        -1.001084
 H         2.390127         0.959616        -2.129731
 H         2.136358         2.112049        -0.975574
 H         4.649987         2.096291        -0.227705
 H         2.292616         0.932549         2.159470
