19
Iteration:   903
 C         4.299363        -1.707031         0.545129
 C         3.251551        -0.772909         0.298000
 O         2.113589        -1.212769        -0.459113
 C         1.408329        -0.069486        -0.111924
 C        -0.052961         0.030156         0.005256
 C         2.220832         0.946768        -1.009739
 C         3.337081         0.640341         0.020067
 O         4.587833         1.144092         0.046108
 C         2.263569         0.176626         1.070103
 H         3.847497        -2.539656         0.956988
 H         4.724171        -1.921636        -0.470688
 H         5.020160        -1.291231         1.301311
 H        -0.580891        -0.923831         0.187296
 H        -0.203353         0.677257         0.820168
 H        -0.575604         0.402892        -0.919632
 H         2.443146         0.620963        -2.041647
 H         1.759113         1.908765        -0.888381
 H         4.539544         2.084157         0.339611
 H         1.807023         0.704876         1.979490
