19
Iteration:  2349charge 0 multiplicity 1
 C         4.215226        -1.770930         0.646072
 C         3.152979        -0.824717         0.348635
 O         2.064321        -1.239661        -0.466542
 C         1.428055         0.066993        -0.118076
 C        -0.135723         0.011735        -0.015074
 C         2.244928         0.896702        -1.009302
 C         3.402010         0.622778        -0.102738
 O         4.629709         1.246437        -0.024013
 C         2.353490         0.189199         1.111040
 H         4.129872        -2.548899         1.476014
 H         4.571370        -2.250127        -0.297417
 H         5.163118        -1.286709         0.926801
 H        -0.253652        -0.711437         0.833059
 H        -0.436405         1.068960         0.307335
 H        -0.642874        -0.388466        -0.835209
 H         2.479891         0.587901        -2.036697
 H         1.923542         1.922520        -0.878972
 H         4.598251         2.071499         0.471003
 H         2.161001         0.687641         2.009263
