19
Iteration:  1404
 C         4.306256        -1.840357         0.590065
 C         3.162644        -0.859049         0.263547
 O         1.916230        -1.336190        -0.344201
 C         1.422658         0.060601        -0.088326
 C        -0.184106        -0.047580        -0.140722
 C         2.171930         1.010845        -0.962708
 C         3.448896         0.666061        -0.098486
 O         4.646165         1.325279         0.089235
 C         2.550959         0.223263         1.037434
 H         3.900474        -2.506258         1.340809
 H         4.668016        -2.340043        -0.351474
 H         5.204025        -1.346437         0.914664
 H        -0.641076        -0.440920         0.785390
 H        -0.621232         0.954397        -0.313928
 H        -0.187487        -0.564084        -1.166295
 H         2.103126         0.953067        -2.091597
 H         1.836773         2.007174        -0.640105
 H         4.436398         2.016239         0.755238
 H         2.483634         0.438075         2.098098
