19
Iteration:  4283charge 0 multiplicity 1
 C         4.287913        -1.747351         0.743927
 C         3.230340        -0.765360         0.299514
 O         2.001502        -1.342540        -0.419324
 C         1.303610         0.039586        -0.104112
 C        -0.140618        -0.064561        -0.044368
 C         2.224775         0.962159        -1.039990
 C         3.364540         0.738548        -0.081157
 O         4.666798         1.265733        -0.035815
 C         2.413816         0.210791         1.045631
 H         3.811125        -2.698608         0.906406
 H         4.871543        -1.975264        -0.154851
 H         4.891133        -1.639419         1.605367
 H        -0.421003        -0.667732         0.796200
 H        -0.569521         0.915062        -0.052964
 H        -0.573400        -0.595496        -0.941494
 H         2.544537         0.688243        -2.084255
 H         1.913788         2.009999        -1.083559
 H         4.822069         1.678976         0.826408
 H         2.533320         0.594510         2.085632
