19
Iteration:  1325charge 0 multiplicity 1
 C         4.249938        -1.822747         0.734122
 C         3.185444        -0.849613         0.188068
 O         1.932555        -1.307112        -0.478984
 C         1.434597        -0.028799        -0.106760
 C        -0.108241        -0.050267        -0.000465
 C         2.235571         1.047184        -0.943356
 C         3.419262         0.690030        -0.153508
 O         4.636967         1.280400         0.058115
 C         2.461438         0.265095         0.975575
 H         3.962352        -2.669870         1.422808
 H         4.776295        -2.301397        -0.094916
 H         4.883425        -1.184550         1.402328
 H        -0.338724        -1.098559         0.205810
 H        -0.495533         0.583970         0.735606
 H        -0.760033        -0.001922        -0.920914
 H         2.227813         1.080159        -2.098468
 H         1.944759         2.016774        -0.612498
 H         4.398063         1.885319         0.793066
 H         2.485756         0.670023         2.024760
