19
Iteration:  1145charge 0 multiplicity 1
 C         4.206762        -1.858982         0.657387
 C         3.205711        -0.784799         0.226458
 O         2.046029        -1.290306        -0.426369
 C         1.452017         0.032021        -0.094158
 C        -0.043890        -0.037844        -0.071333
 C         2.113891         1.047672        -1.000235
 C         3.352847         0.730076        -0.034726
 O         4.633337         1.253170         0.087816
 C         2.446874         0.161264         1.040601
 H         3.558541        -2.442327         1.359442
 H         4.668744        -2.437230        -0.181691
 H         5.096641        -1.475757         1.123913
 H        -0.401145        -0.929564         0.467633
 H        -0.549981         0.788402         0.409482
 H        -0.389680        -0.175819        -1.073414
 H         2.181031         0.787133        -2.032468
 H         1.733553         2.094917        -0.968761
 H         4.719773         2.197866        -0.035611
 H         2.436588         0.278730         2.121163
