19
Iteration:   242charge 0 multiplicity 1
 C         4.344638        -1.812008         0.531161
 C         3.179609        -0.905634         0.189918
 O         1.976010        -1.293885        -0.374253
 C         1.347843        -0.009103        -0.061687
 C        -0.099600         0.007747        -0.113467
 C         2.202456         1.006523        -0.965990
 C         3.347317         0.683515        -0.004252
 O         4.579715         1.363708         0.107629
 C         2.458090         0.207505         1.060845
 H         4.000397        -2.670511         1.122340
 H         4.786648        -2.346362        -0.259808
 H         5.162527        -1.247759         1.077894
 H        -0.696336        -0.541009         0.540789
 H        -0.257877         1.002325        -0.011565
 H        -0.358925        -0.119823        -1.184524
 H         2.342586         0.558318        -1.885722
 H         1.798627         2.017913        -1.123590
 H         5.208713         0.963007         0.695814
 H         2.480486         0.693506         2.118566
