19
Iteration:  4239charge 0 multiplicity 1
 C         4.343940        -1.743980         0.654611
 C         3.232313        -0.849842         0.380641
 O         1.956666        -1.390077        -0.325734
 C         1.409708        -0.049820        -0.145508
 C        -0.122547         0.071822        -0.042493
 C         2.360464         1.004735        -1.098668
 C         3.292480         0.655550        -0.079268
 O         4.546202         1.341402        -0.028464
 C         2.412517         0.177442         1.051024
 H         4.004865        -2.719826         1.055602
 H         4.907487        -1.970191        -0.281012
 H         4.974084        -1.541922         1.469927
 H        -0.643192        -0.833567         0.323526
 H        -0.506849         0.911573         0.481659
 H        -0.531341         0.132532        -1.086028
 H         2.509908         0.498089        -2.092639
 H         1.922971         2.001334        -1.171183
 H         4.687855         1.907952         0.746827
 H         2.210289         0.763568         2.034904
