19
Iteration:  4833
 C         4.169268        -1.857319         0.675939
 C         3.235408        -0.794305         0.345455
 O         2.036159        -1.294118        -0.504013
 C         1.384993         0.037082        -0.126262
 C        -0.101292        -0.136141        -0.039596
 C         2.185082         1.042761        -0.930095
 C         3.410916         0.686658        -0.105924
 O         4.603983         1.386633        -0.013751
 C         2.441383         0.237364         1.078472
 H         3.555458        -2.631827         1.225423
 H         4.786290        -2.275208        -0.093192
 H         4.768139        -1.525093         1.510610
 H        -0.378404        -0.995071         0.670972
 H        -0.354085         0.777521         0.560102
 H        -0.740817        -0.206999        -0.900895
 H         2.283689         0.792982        -1.978403
 H         2.004893         2.102779        -0.781019
 H         5.287120         0.789287        -0.376220
 H         2.565140         0.673526         2.123661
