19
Iteration:   823charge 0 multiplicity 1
 C         4.152933        -1.884669         0.614202
 C         3.167374        -0.836650         0.416465
 O         2.108249        -1.244601        -0.516837
 C         1.384317        -0.060193        -0.191611
 C        -0.095478        -0.136380        -0.069912
 C         2.150797         1.099810        -0.907714
 C         3.349431         0.787864        -0.016801
 O         4.726597         1.306589        -0.054872
 C         2.422933         0.174263         1.130330
 H         3.814514        -2.821160         1.300762
 H         4.486166        -2.438108        -0.263282
 H         5.059717        -1.282543         0.973340
 H        -0.150672        -0.487026         0.947182
 H        -0.513413         0.904283        -0.240952
 H        -0.570212        -0.684396        -0.860851
 H         2.162608         1.259023        -2.039273
 H         1.603945         2.007916        -0.562729
 H         4.625393         2.166026         0.422054
 H         2.473966         0.221054         2.223892
