19
Iteration:   981
 C         4.225479        -1.912016         0.630654
 C         3.229736        -0.883808         0.337297
 O         2.134409        -1.236024        -0.563832
 C         1.364164        -0.011250        -0.116496
 C        -0.110901        -0.034768        -0.087974
 C         2.130579         1.028541        -0.922263
 C         3.316634         0.802752         0.077188
 O         4.624103         1.297611        -0.047523
 C         2.450615         0.123271         1.157092
 H         3.806424        -2.496440         1.405310
 H         4.568172        -2.534602        -0.271161
 H         5.119000        -1.310453         0.806549
 H        -0.665438        -0.311922         0.893151
 H        -0.345548         0.999690        -0.355969
 H        -0.406057        -0.753867        -0.891722
 H         2.224812         0.855328        -1.996000
 H         1.752300         2.083065        -0.985577
 H         4.818710         2.173241         0.384629
 H         2.449547         0.520642         2.342221
