19
Iteration:  1638
 C         4.388604        -1.758597         0.637149
 C         3.161640        -0.814538         0.380871
 O         2.002853        -1.319469        -0.430619
 C         1.369362        -0.016535        -0.209471
 C        -0.136366         0.034334        -0.080479
 C         2.278236         1.014537        -0.974490
 C         3.321143         0.684568         0.059038
 O         4.626748         1.190722        -0.127116
 C         2.364600         0.193289         1.157883
 H         3.928873        -2.494205         1.332225
 H         4.949031        -2.128834        -0.226856
 H         5.282998        -1.258974         1.164174
 H        -0.637978        -0.665260         0.648055
 H        -0.593552         1.041727         0.173937
 H        -0.519903        -0.086564        -1.099682
 H         2.371878         0.637640        -2.028487
 H         1.929862         2.104074        -0.971044
 H         4.824825         1.953370         0.454536
 H         2.152972         0.469734         2.284604
