19
Iteration:  4691
 C         4.191752        -1.785996         0.631224
 C         3.165803        -0.824796         0.313319
 O         1.954200        -1.336762        -0.394887
 C         1.467491        -0.008576        -0.133386
 C        -0.040749        -0.084066         0.014060
 C         2.208865         1.037276        -1.097798
 C         3.428807         0.658683        -0.118850
 O         4.556402         1.336495         0.141273
 C         2.434152         0.288333         1.008603
 H         3.827331        -2.773002         1.089105
 H         4.780177        -2.008336        -0.226755
 H         4.961032        -1.413429         1.366664
 H        -0.294534        -0.419261         1.087394
 H        -0.547411         0.882669        -0.012597
 H        -0.479025        -0.784006        -0.612304
 H         2.451429         0.780695        -2.104611
 H         1.821562         2.058744        -0.923680
 H         5.210269         1.244626        -0.568801
 H         2.549417         0.634296         2.019909
