19
Iteration:  2522
 C         4.227982        -1.811033         0.663030
 C         3.217497        -0.810240         0.327873
 O         1.982234        -1.342128        -0.386413
 C         1.423124        -0.002400        -0.108100
 C        -0.092423         0.013365        -0.045190
 C         2.215832         1.052897        -0.994450
 C         3.353121         0.692021        -0.101856
 O         4.642085         1.270148        -0.010486
 C         2.453434         0.143447         1.040186
 H         3.684084        -2.599290         1.242468
 H         4.801786        -2.330485        -0.111564
 H         4.933114        -1.286163         1.302750
 H        -0.434291        -0.657287         0.850059
 H        -0.595439         1.030574         0.043231
 H        -0.461701        -0.349953        -0.964241
 H         2.286245         0.697002        -2.054827
 H         2.031273         2.182121        -0.888257
 H         4.636277         2.261867        -0.076236
 H         2.279649         0.426313         2.087299
