19
Iteration:  4153charge 0 multiplicity 1
 C         4.155293        -1.757779         0.733282
 C         3.091822        -0.770397         0.337307
 O         2.047129        -1.280409        -0.485909
 C         1.361223        -0.019076        -0.069391
 C        -0.095650        -0.199436        -0.029227
 C         2.317359         1.092129        -0.966567
 C         3.448960         0.715748        -0.050736
 O         4.750557         1.251819        -0.113025
 C         2.290759         0.176422         1.083385
 H         3.874288        -2.167138         1.719817
 H         4.388790        -2.456631        -0.098600
 H         4.990051        -1.071743         0.715892
 H        -0.369309        -0.621188         0.918212
 H        -0.562609         0.746554        -0.122492
 H        -0.179581        -0.826668        -0.950937
 H         2.274631         0.837181        -2.045024
 H         1.894763         2.086040        -0.923603
 H         4.654613         2.168863         0.116809
 H         2.169862         0.472591         2.250384
