19
Iteration:  2344
 C         4.248421        -1.739213         0.650811
 C         3.145859        -0.848287         0.316422
 O         2.067178        -1.262427        -0.457176
 C         1.418822         0.057413        -0.102455
 C        -0.134203         0.021789         0.006477
 C         2.199620         0.921062        -1.035356
 C         3.389670         0.586913        -0.072619
 O         4.668075         1.236093         0.000909
 C         2.380861         0.229309         1.073699
 H         4.026196        -2.522688         1.362088
 H         4.506333        -2.232576        -0.297661
 H         5.144292        -1.202063         0.984983
 H        -0.399781        -0.708506         0.860908
 H        -0.536543         0.992146         0.245349
 H        -0.574888        -0.321592        -1.007568
 H         2.361914         0.557290        -2.058810
 H         1.955719         2.007995        -1.040247
 H         4.465369         2.028948         0.541931
 H         2.233145         0.635914         2.120902
