19
Iteration:  4683
 C         4.206375        -1.799048         0.661664
 C         3.105653        -0.838221         0.318828
 O         1.998661        -1.377669        -0.410994
 C         1.396953         0.016911        -0.096859
 C        -0.062516        -0.118297         0.038619
 C         2.245244         1.085852        -1.137875
 C         3.335637         0.735998        -0.130908
 O         4.617878         1.351196         0.118432
 C         2.530342         0.266357         1.053198
 H         3.592686        -2.682151         1.023967
 H         4.758076        -2.137357        -0.239554
 H         4.821028        -1.582168         1.482013
 H        -0.362258        -0.587252         0.951591
 H        -0.630971         0.782890        -0.173047
 H        -0.435081        -0.786725        -0.778438
 H         2.129425         0.825313        -2.246227
 H         2.016987         2.157975        -0.982109
 H         5.307692         1.161443        -0.515065
 H         2.574033         0.648433         2.142993
