19
Iteration:  3892charge 0 multiplicity 1
 C         4.344564        -1.673152         0.697933
 C         3.159592        -0.876077         0.395939
 O         2.006657        -1.369227        -0.392230
 C         1.382899        -0.074330        -0.177771
 C        -0.089610         0.044008        -0.047150
 C         2.257050         1.002005        -1.077381
 C         3.336188         0.681171        -0.022849
 O         4.618162         1.218888        -0.072531
 C         2.382807         0.246761         1.071210
 H         4.125088        -2.672420         1.161735
 H         4.910233        -1.833556        -0.227116
 H         5.118542        -1.210005         1.277495
 H        -0.479861        -0.738639         0.647329
 H        -0.531135         0.908280         0.362176
 H        -0.566356        -0.103563        -1.092047
 H         2.311641         0.753215        -2.172048
 H         1.802510         2.021889        -0.951038
 H         4.691037         1.885715         0.666141
 H         2.070182         0.745712         2.138882
