19
Iteration:  3829charge 0 multiplicity 1
 C         4.176116        -1.776531         0.774478
 C         3.133569        -0.832702         0.298252
 O         2.038851        -1.299180        -0.448539
 C         1.444865         0.016747        -0.152206
 C        -0.147411        -0.132485        -0.042422
 C         2.297873         1.012753        -0.942235
 C         3.430908         0.658349        -0.021230
 O         4.610299         1.293758        -0.120674
 C         2.416677         0.259931         1.124766
 H         3.664449        -2.571996         1.406265
 H         4.581215        -2.303084        -0.126797
 H         4.977694        -1.123734         1.293400
 H        -0.211502        -1.066735         0.439527
 H        -0.401946         0.839916         0.304960
 H        -0.666774        -0.255567        -1.071757
 H         2.349945         0.816517        -2.048873
 H         2.020260         2.126121        -0.984289
 H         4.439018         2.238690        -0.414157
 H         2.562281         0.475975         2.294336
