19
Iteration:  3898
 C         4.383635        -1.702350         0.693879
 C         3.168004        -0.883134         0.393456
 O         1.974373        -1.356008        -0.384069
 C         1.397075        -0.024150        -0.153514
 C        -0.062240         0.016362        -0.062478
 C         2.242533         0.976433        -1.067222
 C         3.314806         0.678923        -0.038861
 O         4.641919         1.243839        -0.064984
 C         2.310170         0.250354         1.074465
 H         4.085804        -2.649038         1.099120
 H         4.882993        -1.893498        -0.279621
 H         5.135170        -1.104222         1.261777
 H        -0.308173        -0.770860         0.659241
 H        -0.397541         1.075309         0.236439
 H        -0.643452        -0.109509        -0.925170
 H         2.370404         0.645610        -2.083617
 H         1.931379         2.013184        -1.112173
 H         4.638270         1.870589         0.695916
 H         2.124802         0.525370         2.012706
