19
Iteration:  1267
 C         4.309887        -1.718230         0.511624
 C         3.164197        -0.809608         0.342473
 O         2.017656        -1.321317        -0.406222
 C         1.372422        -0.019393        -0.156653
 C        -0.104280         0.008126        -0.145273
 C         2.334133         1.017027        -0.935761
 C         3.325708         0.704317         0.164771
 O         4.631014         1.178635        -0.103151
 C         2.335822         0.180583         1.191831
 H         3.890306        -2.698597         1.040973
 H         4.953968        -1.991970        -0.373468
 H         5.163854        -1.245485         1.135274
 H        -0.421270        -0.805357         0.501212
 H        -0.664412         0.824582         0.444673
 H        -0.546942         0.144942        -1.138806
 H         2.548863         0.622667        -1.917073
 H         2.026492         2.141151        -0.908653
 H         4.542611         2.153955        -0.074021
 H         2.004053         0.340992         2.223751
