19
Iteration:  4242
 C         4.340673        -1.759421         0.648880
 C         3.201173        -0.829922         0.415741
 O         1.971301        -1.391377        -0.344711
 C         1.450651        -0.049782        -0.147360
 C        -0.111290         0.071667        -0.053923
 C         2.345914         0.992848        -1.085575
 C         3.308039         0.652298        -0.068845
 O         4.528357         1.333326        -0.040805
 C         2.385892         0.187897         1.046170
 H         3.872084        -2.685283         0.962416
 H         4.886726        -1.840870        -0.270957
 H         5.084367        -1.495024         1.475634
 H        -0.556875        -0.743785         0.418134
 H        -0.488603         0.883704         0.572820
 H        -0.491752         0.102437        -1.088348
 H         2.464902         0.492835        -2.030553
 H         1.946035         1.983387        -1.141254
 H         4.676560         1.839867         0.749825
 H         2.286819         0.764944         1.916906
