19
Iteration:  2485
 C         4.382038        -1.684841         0.607353
 C         3.172958        -0.834405         0.307100
 O         1.951684        -1.274134        -0.363043
 C         1.360511         0.011084        -0.065889
 C        -0.109974         0.060673        -0.060031
 C         2.181284         0.953722        -1.063446
 C         3.403964         0.622789        -0.136884
 O         4.628731         1.132101         0.082056
 C         2.449357         0.218159         1.037561
 H         4.081723        -2.700027         0.966286
 H         5.122796        -1.710561        -0.226668
 H         4.876154        -1.262118         1.498462
 H        -0.462696        -0.586609         0.686088
 H        -0.423961         1.031209         0.180609
 H        -0.582651        -0.298722        -1.033553
 H         2.021218         0.556749        -2.111128
 H         1.949025         2.058984        -1.054373
 H         4.487123         2.007436         0.476208
 H         2.293788         0.566629         2.064508
