19
Iteration:  4438
 C         4.280757        -1.720116         0.713215
 C         3.095249        -0.803542         0.382780
 O         2.086123        -1.283450        -0.478437
 C         1.374426        -0.064764        -0.143351
 C        -0.160961        -0.000149         0.012241
 C         2.287642         0.959945        -1.105980
 C         3.388535         0.611341        -0.076967
 O         4.644984         1.267986        -0.029809
 C         2.371631         0.192130         1.126910
 H         4.056033        -2.648712         1.145038
 H         4.841755        -1.889903        -0.144008
 H         5.018417        -1.148452         1.311954
 H        -0.576768        -0.816408         0.558943
 H        -0.400106         0.962788         0.492282
 H        -0.610545        -0.044598        -0.957168
 H         2.376155         0.539001        -2.138836
 H         2.100422         2.052004        -1.113773
 H         4.480258         2.159110         0.366858
 H         2.102219         0.542661         2.159266
