19
Iteration:  3073
 C         4.178234        -1.830579         0.837377
 C         3.229975        -0.820019         0.335295
 O         2.013621        -1.270441        -0.537909
 C         1.385946         0.045088        -0.153008
 C        -0.035271        -0.118770        -0.055434
 C         2.213827         1.104355        -0.965218
 C         3.374853         0.603392        -0.060920
 O         4.614981         1.224919        -0.143286
 C         2.449992         0.251603         1.139829
 H         3.671427        -2.664275         1.294540
 H         4.761157        -2.178762        -0.019683
 H         4.954924        -1.465872         1.526987
 H        -0.277001        -0.777722         0.790779
 H        -0.358134         0.846672         0.193113
 H        -0.667230        -0.262834        -0.982996
 H         2.302904         1.003877        -1.989765
 H         1.852213         2.079053        -0.726399
 H         4.467254         2.169957         0.154045
 H         2.397531         0.716843         2.170499
