19
Iteration:  2912
 C         4.190747        -1.805027         0.821388
 C         3.133425        -0.884553         0.269171
 O         2.023441        -1.253407        -0.506266
 C         1.434448        -0.008264        -0.199487
 C        -0.072620        -0.089085         0.012134
 C         2.196615         1.092924        -0.951261
 C         3.372294         0.783762        -0.022123
 O         4.692583         1.268073        -0.161202
 C         2.445012         0.149393         1.131025
 H         3.704614        -2.657426         1.325551
 H         4.662649        -2.296806        -0.026936
 H         4.771614        -1.313009         1.685468
 H        -0.175398        -0.995844         0.689400
 H        -0.498006         0.841609         0.310058
 H        -0.532767        -0.390314        -0.912149
 H         2.401370         0.970314        -2.107291
 H         1.807878         2.148725        -0.958721
 H         4.827231         2.140960         0.304139
 H         1.911624         0.014728         2.087204
