19
Iteration:  4767charge 0 multiplicity 1
 C         4.373009        -1.770365         0.664407
 C         3.150496        -0.888642         0.306793
 O         1.987831        -1.356078        -0.362440
 C         1.417709        -0.023799        -0.093073
 C        -0.134627         0.042520        -0.117002
 C         2.209611         1.015589        -0.947879
 C         3.377398         0.673765        -0.108903
 O         4.552929         1.341744         0.065002
 C         2.424810         0.225795         1.039330
 H         4.313557        -2.431618         1.594711
 H         4.335831        -2.521335        -0.117191
 H         5.388990        -1.310628         0.515979
 H        -0.577807        -0.999292         0.215788
 H        -0.604683         0.857600         0.496001
 H        -0.435881         0.139062        -1.129045
 H         2.193227         0.788064        -2.004897
 H         1.966267         2.068999        -0.757962
 H         5.283262         1.275991        -0.600776
 H         2.388214         0.630878         2.089963
