19
Iteration:  3660charge 0 multiplicity 1
 C         4.210380        -1.781008         0.797741
 C         3.126703        -0.883985         0.323872
 O         2.067752        -1.401423        -0.366162
 C         1.421493         0.119841        -0.143238
 C        -0.067058        -0.041360        -0.054527
 C         2.167744         0.987147        -1.026983
 C         3.381598         0.686773        -0.132383
 O         4.636757         1.298989        -0.069710
 C         2.422944         0.238290         0.989955
 H         3.712095        -2.655937         1.210711
 H         4.753911        -2.149435        -0.091456
 H         5.048694        -1.320874         1.457236
 H        -0.153542        -1.067770         0.380620
 H        -0.594766         0.681620         0.632386
 H        -0.448782         0.091701        -0.968305
 H         2.287566         0.985873        -2.183140
 H         2.016596         2.041090        -0.679636
 H         4.480641         2.112648         0.516110
 H         2.391539         0.571484         2.097179
