19
Iteration:   208charge 0 multiplicity 1
 C         4.328058        -1.722040         0.546462
 C         3.088831        -0.861685         0.357320
 O         2.037671        -1.322611        -0.402282
 C         1.385482         0.034603        -0.138570
 C        -0.068293         0.022164        -0.145775
 C         2.262737         1.051287        -0.869928
 C         3.397714         0.547899        -0.005151
 O         4.562641         1.335800         0.018681
 C         2.333605         0.155672         1.090123
 H         4.143551        -2.527643         1.241664
 H         4.586638        -2.071471        -0.459198
 H         5.203683        -1.139237         0.893863
 H        -0.488479        -0.709184         0.519708
 H        -0.344779         0.988079         0.215321
 H        -0.472256        -0.180368        -1.141072
 H         2.360309         0.896965        -1.909243
 H         1.941858         2.065981        -0.599612
 H         5.359141         0.870347        -0.322500
 H         2.091679         0.426954         2.149249
