19
Iteration:  2882charge 0 multiplicity 1
 C         4.232069        -1.737949         0.740501
 C         3.162431        -0.867296         0.257242
 O         2.100060        -1.225573        -0.509510
 C         1.365055         0.026601        -0.123953
 C        -0.160011        -0.049281        -0.019166
 C         2.198739         1.006416        -0.952357
 C         3.383291         0.596359        -0.127913
 O         4.627033         1.195048         0.030343
 C         2.500185         0.228292         1.087129
 H         3.740275        -2.651339         1.119883
 H         4.851249        -2.004854        -0.150182
 H         4.901548        -1.267650         1.577877
 H        -0.267357        -0.757155         0.901552
 H        -0.827833         0.982673         0.070332
 H        -0.494472        -0.404393        -0.965035
 H         2.186514         0.876186        -2.046205
 H         1.992435         2.027038        -0.644552
 H         4.426962         2.092769        -0.205367
 H         2.412194         0.716072         2.125086
