19
Iteration:  2024charge 0 multiplicity 1
 C         4.291550        -1.804142         0.752258
 C         3.212062        -0.822896         0.290849
 O         1.974565        -1.272967        -0.475064
 C         1.410316         0.029934        -0.140278
 C        -0.024646         0.034544         0.015211
 C         2.158159         0.994195        -1.031967
 C         3.376150         0.621804        -0.149843
 O         4.642237         1.274396         0.027180
 C         2.380581         0.163809         1.046278
 H         3.742209        -2.601356         1.396226
 H         4.654756        -2.360057        -0.151846
 H         5.134515        -1.224514         1.240595
 H        -0.291359        -0.722390         0.745608
 H        -0.337418         1.093688         0.284254
 H        -0.415369        -0.363373        -0.997997
 H         2.235706         0.690853        -2.096956
 H         1.726658         1.972430        -0.812932
 H         4.385983         2.119197         0.445751
 H         2.377836         0.329556         2.175184
