19
Iteration:  4388charge 0 multiplicity 1
 C         4.358391        -1.807691         0.634168
 C         3.174015        -0.853496         0.341501
 O         2.021290        -1.281844        -0.263492
 C         1.341759        -0.007786        -0.087767
 C        -0.167217        -0.012528        -0.156255
 C         2.239891         0.971494        -1.078300
 C         3.401976         0.610069        -0.107250
 O         4.563368         1.304299         0.059015
 C         2.456950         0.292875         0.983237
 H         4.189842        -2.495626         1.563877
 H         4.691038        -2.480850        -0.271082
 H         5.297583        -1.196519         0.685424
 H        -0.653387        -0.967733         0.337811
 H        -0.419848         0.885467         0.457215
 H        -0.563899         0.022848        -1.197574
 H         2.235694         0.632042        -2.105175
 H         1.816935         1.980092        -0.933543
 H         4.538085         1.979696         0.784653
 H         2.572737         0.530573         2.059429
