19
Iteration:  2357
 C         4.229576        -1.870144         0.650201
 C         3.176743        -0.778752         0.419628
 O         2.037283        -1.234347        -0.475069
 C         1.375543         0.003955        -0.172831
 C        -0.054030         0.004385        -0.028485
 C         2.364673         0.949331        -0.998258
 C         3.404628         0.690304        -0.073310
 O         4.567953         1.266931        -0.087009
 C         2.308099         0.156358         1.139958
 H         3.991189        -2.536164         1.543309
 H         4.448564        -2.453283        -0.287583
 H         5.081782        -1.259885         0.869712
 H        -0.158294        -0.748742         0.986384
 H        -0.403871         1.014789         0.341554
 H        -0.786497        -0.423868        -0.760979
 H         2.398888         0.764534        -2.043786
 H         1.939228         1.953904        -0.792985
 H         4.721489         2.169867         0.255473
 H         2.151993         0.694888         2.089638
