19
Iteration:  1820charge 0 multiplicity 1
 C         4.217670        -1.831326         0.569992
 C         3.134695        -0.833225         0.449621
 O         2.087020        -1.246394        -0.444727
 C         1.393220         0.003637        -0.096909
 C        -0.095490        -0.033378        -0.070529
 C         2.260224         0.910252        -1.056542
 C         3.379973         0.644692        -0.010431
 O         4.622111         1.267308        -0.010347
 C         2.387381         0.273484         1.120224
 H         4.148183        -2.635287         1.255357
 H         4.355197        -2.025599        -0.506223
 H         5.069337        -1.179581         0.926278
 H        -0.566870        -0.688800         0.670165
 H        -0.266283         1.042145         0.253641
 H        -0.564892        -0.156937        -1.132656
 H         2.249512         0.486233        -2.044130
 H         1.813963         1.963612        -1.128712
 H         4.730587         2.174921         0.322583
 H         2.286606         0.634425         2.260999
