19
Iteration:   934charge 0 multiplicity 1
 C         4.334824        -1.720616         0.567673
 C         3.127024        -0.890592         0.284104
 O         1.930592        -1.327734        -0.413393
 C         1.367296         0.045407        -0.086201
 C        -0.209592        -0.074819        -0.120458
 C         2.244952         1.085465        -0.972573
 C         3.388980         0.701557        -0.016109
 O         4.704330         1.217698         0.095206
 C         2.503756         0.185492         1.070312
 H         4.096251        -2.590715         1.176496
 H         4.837963        -2.019278        -0.357047
 H         5.097859        -1.011312         0.987386
 H        -0.364416        -1.016279         0.359676
 H        -0.717491         0.660341         0.428325
 H        -0.581528        -0.224806        -1.151715
 H         2.429819         0.897792        -2.046659
 H         1.728429         2.006823        -0.946294
 H         4.636808         2.155590         0.317216
 H         2.321427         0.479083         2.066216
