19
Iteration:  4934charge 0 multiplicity 1
 C         4.234194        -1.796267         0.503084
 C         3.121094        -0.851684         0.291440
 O         1.976846        -1.276803        -0.316496
 C         1.435154         0.000264        -0.031733
 C        -0.067142        -0.143396        -0.136706
 C         2.247973         1.079383        -0.996642
 C         3.398428         0.609460        -0.052001
 O         4.614366         1.279594         0.123318
 C         2.411985         0.394067         1.082879
 H         3.960067        -2.653439         1.145433
 H         4.551415        -2.363130        -0.372292
 H         5.114237        -1.333644         0.866462
 H        -0.577134        -0.783172         0.532086
 H        -0.565536         0.798068         0.080308
 H        -0.591792        -0.449411        -1.144314
 H         2.258157         0.761076        -2.053240
 H         2.117192         2.129750        -0.924391
 H         5.216025         1.308231        -0.615595
 H         2.405054         0.609412         2.126372
