19
Iteration:   318
 C         4.113274        -1.830068         0.714956
 C         3.201748        -0.827450         0.192726
 O         2.096726        -1.211260        -0.542984
 C         1.373779         0.006796        -0.043661
 C        -0.067789        -0.087804        -0.001874
 C         2.179470         1.097520        -0.956847
 C         3.392999         0.654310        -0.159457
 O         4.614348         1.259745         0.066707
 C         2.526757         0.143824         1.055780
 H         3.636061        -2.636931         1.340770
 H         4.715984        -2.252167        -0.065233
 H         4.791076        -1.226011         1.385060
 H        -0.325405        -0.848579         0.706656
 H        -0.445198         0.767043         0.468615
 H        -0.500917        -0.346898        -1.067019
 H         2.064917         0.846371        -1.957084
 H         1.953123         2.177738        -0.885120
 H         4.416558         2.215355         0.283996
 H         2.411056         0.207598         2.240163
