19
Iteration:  2910
 C         4.197743        -1.789341         0.808912
 C         3.136678        -0.881695         0.281319
 O         2.009957        -1.248930        -0.520582
 C         1.434906        -0.008364        -0.182402
 C        -0.063482        -0.101057         0.022446
 C         2.207311         1.098157        -0.962722
 C         3.372000         0.768901        -0.009937
 O         4.698936         1.264828        -0.163692
 C         2.438743         0.153165         1.141320
 H         3.634797        -2.587630         1.325919
 H         4.736342        -2.303264         0.014425
 H         4.697874        -1.337872         1.622066
 H        -0.173207        -0.913353         0.714305
 H        -0.465257         0.770251         0.248036
 H        -0.528116        -0.354256        -0.977877
 H         2.363651         0.903505        -2.071726
 H         1.836361         2.158590        -0.967036
 H         4.709206         2.114068         0.279905
 H         1.896597        -0.013984         2.021587
