19
Iteration:  3282charge 0 multiplicity 1
 C         4.220500        -1.859821         0.818976
 C         3.130837        -0.873592         0.312078
 O         2.083814        -1.239139        -0.473165
 C         1.403521         0.069189        -0.220087
 C        -0.117381        -0.064303         0.034797
 C         2.234257         0.986349        -1.029663
 C         3.477098         0.527958        -0.159388
 O         4.582216         1.375946        -0.085430
 C         2.396513         0.239878         1.112810
 H         3.598196        -2.572420         1.408521
 H         4.826135        -2.306461        -0.005301
 H         4.778794        -1.246541         1.599387
 H        -0.445368        -0.871178         0.683909
 H        -0.225642         0.819102         0.510990
 H        -0.624927         0.175255        -0.954604
 H         2.279043         0.553568        -2.069357
 H         2.022196         2.102910        -1.025700
 H         4.664216         1.923744         0.678088
 H         2.260470         0.490174         2.122446
