19
Iteration:  3056
 C         0.123417        -0.903597         0.554408
 C         1.421769        -0.207958         0.136451
 C         2.769546        -0.177706         0.872647
 C         3.469514        -0.848394        -0.324239
 C         2.200964        -0.344738        -1.173292
 O         2.026409        -1.192601        -2.352097
 C         2.369764         1.155547        -1.355587
 C         2.099423         1.152342         0.241326
 O         1.793974         2.384915         0.891450
 H        -0.767024        -0.305546         0.811063
 H        -0.110929        -1.675694        -0.261188
 H         0.285393        -1.331334         1.584638
 H         3.178741        -0.192170         1.891043
 H         4.473325        -0.503682        -0.621572
 H         3.401907        -1.996981        -0.218853
 H         1.306765        -1.870681        -2.171013
 H         3.387264         1.448808        -1.734096
 H         1.438475         1.591972        -1.815915
 H         2.484861         2.437586         1.590179
