19
Iteration:  4614charge 0 multiplicity 1
 C        -0.131069        -0.465691         0.422778
 C         1.328691        -0.104011         0.178234
 C         2.630187        -0.072149         0.945464
 C         3.483101        -0.973116        -0.082911
 C         2.307691        -0.560400        -1.160810
 O         2.093143        -1.309257        -2.310538
 C         2.474328         0.990749        -1.325815
 C         2.170012         1.121850         0.098696
 O         2.025542         2.345973         0.822335
 H        -0.703355         0.338934         0.037171
 H        -0.530972        -1.256537        -0.225899
 H        -0.460723        -0.714367         1.407246
 H         2.674626         0.015739         2.105268
 H         4.541952        -0.726211        -0.469116
 H         3.447195        -2.023589         0.265177
 H         1.518841        -2.022910        -1.932857
 H         3.468908         1.251758        -1.748630
 H         1.546074         1.276804        -1.987895
 H         1.122576         2.601069         0.564524
