19
Iteration:    17
 C        -0.264437        -0.440349         0.132358
 C         1.234713        -0.028654        -0.056215
 C         2.466402        -0.159298         0.914231
 C         3.417058        -0.999739         0.002020
 C         2.427880        -0.521013        -1.096705
 O         2.145119        -1.434294        -2.112352
 C         2.816288         1.136200        -1.221542
 C         2.182119         1.123809         0.136404
 O         1.864377         2.322632         0.789023
 H        -0.966922         0.033825         0.957881
 H        -0.951078        -0.254064        -0.791521
 H        -0.204238        -1.526487         0.364624
 H         2.330783        -0.235363         2.003126
 H         4.488793        -0.669594        -0.217644
 H         3.381189        -2.088395         0.162216
 H         1.409088        -2.058156        -1.813742
 H         3.864654         1.517845        -1.307705
 H         2.073269         1.643113        -1.896809
 H         2.729230         2.663089         1.096254
