19
Iteration:  2611
 C         0.000242        -0.825103         0.453013
 C         1.385607        -0.268207         0.158697
 C         2.678543        -0.042690         0.795724
 C         3.487693        -0.778214        -0.254654
 C         2.325991        -0.415666        -1.193875
 O         2.116774        -1.414522        -2.209411
 C         2.409867         1.050841        -1.336806
 C         2.041491         1.217827         0.207548
 O         1.840924         2.442074         0.932057
 H        -0.806578        -0.017166         0.367372
 H        -0.386909        -1.639856        -0.138096
 H         0.010709        -1.399031         1.387785
 H         2.890538         0.013944         1.846599
 H         4.472095        -0.330488        -0.513673
 H         3.406817        -1.828287         0.024052
 H         1.199985        -1.799967        -2.255263
 H         3.275813         1.481801        -1.828981
 H         1.657304         1.533325        -1.963288
 H         2.668415         2.853323         0.672848
