19
Iteration:  1540
 C         0.083453        -0.807635         0.412243
 C         1.377866        -0.086968         0.120061
 C         2.610244        -0.027537         0.901898
 C         3.442689        -0.863364        -0.090022
 C         2.338583        -0.482949        -1.132852
 O         1.953395        -1.222656        -2.218188
 C         2.484644         0.950287        -1.388500
 C         2.204557         1.169409         0.107940
 O         1.818328         2.378088         0.760117
 H        -0.414639        -0.512130         1.316690
 H        -0.573083        -0.739643        -0.409041
 H         0.155778        -1.854390         0.678746
 H         2.655608        -0.168109         1.965668
 H         4.471979        -0.521751        -0.407402
 H         3.570525        -1.893650         0.034255
 H         1.474471        -1.957277        -1.697871
 H         3.373631         1.432646        -1.776519
 H         1.675215         1.476115        -1.938771
 H         2.417365         2.619094         1.497221
