19
Iteration:   107charge 0 multiplicity 1
 C        -0.074720        -0.359862         0.317281
 C         1.337146        -0.098487        -0.044875
 C         2.505524        -0.203950         0.960019
 C         3.369179        -1.076884         0.037208
 C         2.400081        -0.565637        -1.106572
 O         2.041836        -1.260127        -2.251550
 C         2.807814         0.938053        -1.161310
 C         2.169510         1.134867         0.193815
 O         1.653357         2.399660         0.607666
 H        -0.238810        -0.120145         1.366149
 H        -0.766045         0.195372        -0.400766
 H        -0.120508        -1.549980         0.260491
 H         2.491830        -0.198201         2.028534
 H         4.439083        -0.895597         0.007679
 H         3.255423        -2.220598         0.286587
 H         2.872135        -1.596084        -2.650660
 H         3.900845         1.202796        -1.205465
 H         2.231009         1.521009        -1.856459
 H         2.284409         2.785446         1.221022
