19
Iteration:  2742charge 0 multiplicity 1
 C         0.083649        -0.545235         0.756384
 C         1.397704        -0.235310         0.129384
 C         2.785692        -0.046954         0.830843
 C         3.478495        -0.827836        -0.307597
 C         2.300456        -0.495330        -1.227934
 O         2.049651        -1.258708        -2.400638
 C         2.447700         1.016926        -1.339832
 C         2.071244         1.094425         0.162269
 O         1.636760         2.290896         0.861411
 H        -0.390078        -1.481464         0.254029
 H         0.080847        -0.932616         1.821144
 H        -0.700170         0.315884         0.648339
 H         2.900019        -0.301198         1.921597
 H         4.501178        -0.493993        -0.628531
 H         3.756530        -1.838598         0.050662
 H         2.805796        -1.820508        -2.544927
 H         3.414731         1.521850        -1.736666
 H         1.499093         1.280208        -1.856589
 H         2.020171         2.283493         1.755253
