19
Iteration:  3196
 C         0.131924        -0.769370         0.535843
 C         1.477312        -0.290331         0.136016
 C         2.802064        -0.114059         0.817996
 C         3.554588        -0.845826        -0.330177
 C         2.356748        -0.405303        -1.143721
 O         1.748515        -1.103153        -2.307646
 C         2.449729         1.093812        -1.322937
 C         2.077101         1.142269         0.226302
 O         1.720098         2.151210         1.015980
 H        -0.310030        -1.489485        -0.171777
 H         0.184681        -1.278303         1.515910
 H        -0.512988         0.084911         0.510267
 H         2.886035         0.132136         1.906860
 H         4.712687        -0.551201        -0.541676
 H         3.718276        -1.935590        -0.264452
 H         2.208254        -0.637348        -3.068969
 H         3.435513         1.291613        -1.683667
 H         1.601970         1.498162        -1.981358
 H         2.030459         2.947650         0.536832
