19
Iteration:  4415
 C        -0.056945        -0.505063         0.419556
 C         1.342847        -0.092542         0.093328
 C         2.657681        -0.143397         0.861687
 C         3.411680        -1.001125        -0.132458
 C         2.276671        -0.597173        -1.080987
 O         1.995190        -1.331047        -2.248247
 C         2.653333         1.023642        -1.301167
 C         2.170355         1.160320         0.122700
 O         1.934417         2.363747         0.870866
 H        -0.520622        -1.321250        -0.115115
 H        -0.333121        -0.584880         1.485270
 H        -0.660110         0.269391        -0.093653
 H         2.616642        -0.289847         1.873126
 H         4.415503        -0.665953        -0.226599
 H         3.499634        -2.082932         0.065260
 H         1.046586        -1.513731        -2.334864
 H         3.572459         1.479730        -1.509631
 H         1.995592         1.459439        -2.125566
 H         1.697863         3.157533         0.345585
