19
Iteration:  3315charge 0 multiplicity 1
 C         0.143756        -0.681016         0.563793
 C         1.492516        -0.259330         0.177916
 C         2.975739        -0.202639         0.778000
 C         3.488977        -0.952463        -0.431696
 C         2.265681        -0.394953        -1.172402
 O         1.795616        -0.966335        -2.375825
 C         2.516638         1.112952        -1.157480
 C         2.163516         1.087524         0.306842
 O         1.563484         2.256164         0.852749
 H         0.257244        -1.270758         1.561298
 H        -0.497076         0.156523         0.886598
 H        -0.208644        -1.341542        -0.244812
 H         3.508710        -0.326317         1.731477
 H         4.513476        -0.760140        -0.777451
 H         3.333394        -2.019362        -0.321272
 H         2.080595        -1.877789        -2.494477
 H         3.518523         1.277662        -1.661007
 H         1.604926         1.530752        -1.727775
 H         1.230353         2.060732         1.743050
