19
Iteration:  4379charge 0 multiplicity 1
 C        -0.046156        -0.385081         0.500044
 C         1.416133        -0.128078         0.089965
 C         2.712490        -0.165557         0.924232
 C         3.385906        -1.050946        -0.102632
 C         2.304904        -0.487457        -1.122222
 O         1.967011        -1.259845        -2.253058
 C         2.735413         1.039436        -1.294396
 C         2.221418         1.122421         0.021567
 O         1.787813         2.211098         0.805178
 H        -0.237624        -1.405368         0.778620
 H        -0.330981         0.286884         1.277848
 H        -0.644790        -0.065470        -0.345490
 H         2.711336        -0.171334         2.046619
 H         4.448686        -0.858569        -0.338681
 H         3.109856        -2.147459         0.151676
 H         1.025698        -1.081735        -2.483645
 H         3.830620         1.314642        -1.376247
 H         1.861891         1.472964        -1.964907
 H         1.059318         2.663265         0.333129
