19
Iteration:  3382charge 0 multiplicity 1
 C         0.023212        -0.749627         0.601594
 C         1.334932        -0.206796         0.097738
 C         2.700388        -0.210547         0.727744
 C         3.529147        -0.733591        -0.401527
 C         2.310025        -0.337371        -1.281280
 O         1.894648        -1.323082        -2.340470
 C         2.424676         1.173508        -1.279324
 C         2.098559         1.150061         0.254511
 O         1.986580         2.177567         1.108855
 H        -0.150583        -0.638190         1.762496
 H        -0.849163        -0.390047        -0.029628
 H         0.088480        -1.872817         0.465777
 H         2.927128        -0.002429         1.740982
 H         4.497972        -0.319667        -0.652367
 H         3.662664        -1.785728        -0.459987
 H         1.972398        -0.716000        -3.137108
 H         3.500875         1.548541        -1.562535
 H         1.588560         1.858978        -1.728048
 H         1.273327         2.182251         1.786780
