19
Iteration:   214
 C        -0.216558        -0.457548         0.101889
 C         1.294567        -0.247517         0.078744
 C         2.488740        -0.079041         0.924688
 C         3.525704        -0.945372        -0.016186
 C         2.358837        -0.533446        -1.028044
 O         2.049962        -1.291518        -2.220615
 C         2.697074         0.967721        -1.216451
 C         2.120104         1.157673         0.125446
 O         1.927684         2.391965         0.769809
 H        -0.755762         0.206108         0.822015
 H        -0.659931        -0.309031        -0.938249
 H        -0.670229        -1.368235         0.238048
 H         2.544733        -0.218911         1.989764
 H         4.542496        -0.486525        -0.145038
 H         3.494176        -1.945578         0.411667
 H         2.171925        -2.224842        -2.020778
 H         3.813080         1.109838        -1.389141
 H         2.191500         1.547079        -1.990880
 H         2.126037         2.309994         1.701737
