19
Iteration:  1867
 C         0.071883        -0.643192         0.609473
 C         1.448455        -0.175131         0.192474
 C         2.825258        -0.087574         0.906529
 C         3.484789        -0.788703        -0.280778
 C         2.316332        -0.560337        -1.186489
 O         2.031255        -1.457554        -2.276656
 C         2.401654         1.059445        -1.348779
 C         2.058834         1.148758         0.130591
 O         1.612458         2.346813         0.898421
 H        -0.252822         0.082246         1.489889
 H        -0.607268        -0.536056        -0.333670
 H        -0.050069        -1.643604         1.001181
 H         2.991155         0.033107         1.951892
 H         4.362099        -0.270602        -0.816680
 H         3.810114        -1.788974        -0.229986
 H         2.298816        -0.882050        -3.063276
 H         3.475345         1.270459        -1.647251
 H         1.763604         1.601893        -2.057190
 H         2.271254         3.023825         0.601505
