19
Iteration:  4777
 C        -0.086098        -0.376682         0.451986
 C         1.321603        -0.132219         0.008385
 C         2.696685        -0.100226         0.906419
 C         3.383883        -0.942448        -0.181697
 C         2.285352        -0.588053        -1.149470
 O         2.070152        -1.397953        -2.202005
 C         2.664283         1.052252        -1.324870
 C         2.186092         1.078769         0.082612
 O         1.848797         2.312816         0.949938
 H        -0.713998        -0.954139        -0.265797
 H        -0.062358        -0.986213         1.393727
 H        -0.381553         0.633534         0.763210
 H         3.029863        -0.065589         1.903527
 H         4.395459        -0.799365        -0.380237
 H         3.279405        -2.044409         0.087724
 H         1.203641        -1.420716        -2.635187
 H         3.573626         1.411404        -1.575504
 H         1.826372         1.311604        -2.026268
 H         1.394680         2.943404         0.365089
