19
Iteration:  1862charge 0 multiplicity 1
 C         0.090066        -0.588672         0.620276
 C         1.398026        -0.141261         0.189175
 C         2.854366        -0.088939         0.871073
 C         3.505130        -0.826789        -0.293406
 C         2.292573        -0.509404        -1.147683
 O         2.051630        -1.443752        -2.275707
 C         2.414340         1.044587        -1.363421
 C         2.077983         1.123605         0.153702
 O         1.572420         2.326514         0.878485
 H        -0.266329        -0.028124         1.409689
 H        -0.696231        -0.661310        -0.106473
 H         0.145196        -1.693285         0.872595
 H         3.019915         0.047135         1.962751
 H         4.312536        -0.289282        -0.742894
 H         3.733019        -1.942243        -0.150279
 H         2.333367        -0.991097        -3.086098
 H         3.432079         1.197622        -1.723860
 H         1.756040         1.761682        -1.901743
 H         2.303551         2.878983         0.584346
