19
Iteration:   182
 C        -0.159525        -0.346062         0.281140
 C         1.291396        -0.154600         0.169340
 C         2.493290        -0.204116         0.976742
 C         3.321984        -1.089181         0.083739
 C         2.378300        -0.524158        -1.112529
 O         2.377093        -1.249552        -2.344761
 C         2.533477         1.029903        -1.296628
 C         2.228502         1.132003         0.182540
 O         1.796909         2.345683         0.665417
 H        -0.711808         0.432091         0.877104
 H        -0.647865        -0.129291        -0.750827
 H        -0.284047        -1.365107         0.752999
 H         2.612311        -0.116614         2.044156
 H         4.445960        -1.027531        -0.045178
 H         3.058158        -2.182528         0.270326
 H         1.733660        -1.966233        -2.336851
 H         3.520265         1.341968        -1.806181
 H         1.670348         1.416661        -1.839448
 H         2.441560         2.507624         1.395975
