19
Iteration:   406charge 0 multiplicity 1
 C        -0.032001        -0.282095         0.124582
 C         1.334057        -0.289590         0.033718
 C         2.566301        -0.145176         0.948095
 C         3.443292        -0.954808        -0.002994
 C         2.406995        -0.556070        -1.104140
 O         2.016866        -1.300355        -2.179888
 C         2.690971         0.914066        -1.182424
 C         2.121331         1.088417         0.236077
 O         1.810666         2.334562         0.768943
 H        -0.346017         0.360046         0.953092
 H        -0.484821        -0.024943        -0.751539
 H        -0.533122        -1.303228         0.349424
 H         2.535142        -0.322822         2.035504
 H         4.533069        -0.789027        -0.208743
 H         3.261447        -1.980535         0.323365
 H         2.319962        -0.670522        -2.939887
 H         3.738376         1.237743        -1.195061
 H         2.068895         1.548563        -1.892509
 H         0.960203         2.661426         0.385792
