19
Iteration:  2684charge 0 multiplicity 1
 C         0.146313        -0.700376         0.572915
 C         1.446429        -0.145474         0.092245
 C         2.872295         0.011361         0.828197
 C         3.605214        -0.908225        -0.193255
 C         2.320324        -0.527340        -1.158824
 O         1.784136        -1.209985        -2.225501
 C         2.532164         0.990298        -1.294193
 C         2.124518         1.165396         0.144247
 O         1.520302         2.231453         0.787755
 H        -0.452656        -0.662343        -0.360455
 H         0.246680        -1.819021         0.764450
 H        -0.521168        -0.174767         1.373582
 H         3.053699         0.226000         1.847169
 H         4.616016        -0.530221        -0.403808
 H         3.572954        -1.937164         0.179526
 H         2.307077        -1.025373        -3.072658
 H         3.495603         1.528985        -1.662385
 H         1.697804         1.461165        -1.868768
 H         2.187988         2.530252         1.422024
