19
Iteration:  3457charge 0 multiplicity 1
 C         0.139978        -0.846308         0.545885
 C         1.451072        -0.288689         0.147982
 C         2.800817        -0.167150         0.764062
 C         3.499116        -0.883034        -0.358045
 C         2.278430        -0.372837        -1.258777
 O         1.780067        -0.927979        -2.321014
 C         2.587832         1.145385        -1.277530
 C         2.140783         1.066744         0.274827
 O         1.706049         2.171718         0.986957
 H        -0.459776         0.021573         1.002273
 H        -0.595726        -1.087298        -0.234347
 H         0.281484        -1.646937         1.286400
 H         2.993613        -0.167400         1.805436
 H         4.529340        -0.726655        -0.680629
 H         3.385137        -1.964165        -0.369333
 H         1.024641        -1.441188        -2.001229
 H         3.651808         1.410923        -1.464647
 H         1.814348         1.668594        -1.892733
 H         2.473498         2.760768         0.943866
