19
Iteration:   831
 C        -0.079439        -0.453629         0.294767
 C         1.308106        -0.177176        -0.027060
 C         2.645547        -0.055932         0.853211
 C         3.396785        -1.018798        -0.193637
 C         2.344448        -0.516237        -1.132589
 O         2.131585        -1.361632        -2.208587
 C         2.679123         1.035727        -1.296257
 C         2.099442         1.193127         0.166291
 O         1.857205         2.335184         1.021516
 H        -0.365905         0.026586         1.205029
 H        -0.797805        -0.254836        -0.615936
 H        -0.162388        -1.482959         0.472968
 H         2.650348         0.105490         1.922600
 H         4.364020        -0.692314        -0.508068
 H         3.104032        -2.103707         0.030945
 H         1.933303        -2.224466        -1.686484
 H         3.657681         1.527665        -1.537319
 H         1.825861         1.343072        -2.019267
 H         0.915994         2.666450         0.867009
