19
Iteration:  1633charge 0 multiplicity 1
 C         0.036009        -0.512954         0.679777
 C         1.396723        -0.227735         0.093766
 C         2.775070        -0.025205         0.838451
 C         3.521673        -0.912808        -0.071596
 C         2.396974        -0.544477        -1.204662
 O         1.956689        -1.341343        -2.297325
 C         2.532554         1.117314        -1.359914
 C         2.035689         1.049451         0.070636
 O         1.675645         2.322241         0.765570
 H        -0.003180        -0.158575         1.655837
 H        -0.743276        -0.216800        -0.034492
 H        -0.087030        -1.612636         0.756776
 H         2.971580         0.237894         1.862495
 H         4.533877        -0.800824        -0.376107
 H         3.536674        -1.992137         0.296374
 H         2.489140        -1.094732        -3.031390
 H         3.474810         1.606152        -1.544171
 H         1.883910         1.594806        -2.054320
 H         1.143872         1.987826         1.523008
