19
Iteration:  2442charge 0 multiplicity 1
 C         0.060743        -0.748641         0.398099
 C         1.377331        -0.189635         0.029156
 C         2.738057        -0.065802         0.885729
 C         3.582440        -0.784149        -0.199634
 C         2.320509        -0.487127        -1.118034
 O         1.999806        -1.392437        -2.161492
 C         2.406535         1.110317        -1.240890
 C         2.083138         1.121389         0.219236
 O         1.761892         2.409268         0.702527
 H         0.071752        -0.986440         1.419170
 H        -0.857340        -0.120021         0.351657
 H        -0.011791        -1.637436        -0.275344
 H         2.761884        -0.111764         2.028196
 H         4.539595        -0.502926        -0.623922
 H         3.701605        -1.860650         0.006254
 H         1.013059        -1.572133        -1.994684
 H         3.368730         1.420765        -1.619322
 H         1.572571         1.497495        -1.801703
 H         2.487581         2.701587         1.275733
