19
Iteration:  1877charge 0 multiplicity 1
 C         0.047517        -0.679764         0.593717
 C         1.459197        -0.325513         0.211214
 C         2.737697        -0.040108         0.854204
 C         3.563645        -0.733163        -0.277793
 C         2.309988        -0.545851        -1.180528
 O         2.001112        -1.431184        -2.245675
 C         2.423261         1.052071        -1.356313
 C         2.028131         1.207401         0.128543
 O         1.709881         2.326669         0.887030
 H        -0.344746         0.129167         1.291526
 H        -0.531244        -0.407815        -0.350660
 H        -0.179986        -1.655446         0.996023
 H         3.003698        -0.063825         1.881617
 H         4.536335        -0.249519        -0.536180
 H         3.721018        -1.782177        -0.032107
 H         2.083151        -0.935839        -3.141604
 H         3.382075         1.604884        -1.574198
 H         1.624283         1.216533        -2.056466
 H         2.149768         3.152235         0.703022
