19
Iteration:  3346charge 0 multiplicity 1
 C         0.114059        -0.657354         0.591584
 C         1.486241        -0.243606         0.165842
 C         2.822218        -0.139001         0.771894
 C         3.551168        -0.930635        -0.385346
 C         2.310384        -0.394324        -1.198839
 O         1.826766        -1.056713        -2.349531
 C         2.379845         1.158053        -1.220697
 C         2.107405         1.054442         0.208002
 O         1.778498         2.169437         0.955726
 H         0.091303        -0.974294         1.712005
 H        -0.713314         0.136614         0.585186
 H        -0.224962        -1.545463        -0.046375
 H         3.135510        -0.112380         1.844120
 H         4.527356        -0.633917        -0.686681
 H         3.280605        -2.010570        -0.361829
 H         2.582827        -1.207767        -2.971975
 H         3.318804         1.578803        -1.786925
 H         1.465642         1.533117        -1.783128
 H         1.253197         1.838371         1.718552
