19
Iteration:  1019charge 0 multiplicity 1
 C         0.003631        -0.327946         0.271156
 C         1.481023        -0.273616         0.096277
 C         2.725583        -0.130611         1.025404
 C         3.431729        -1.003940        -0.120547
 C         2.409926        -0.524962        -1.091730
 O         2.018482        -1.239933        -2.333600
 C         2.583248         1.078538        -1.210333
 C         2.146201         1.086463         0.199176
 O         1.619247         2.242971         0.789435
 H        -0.345843         0.218599         1.214355
 H        -0.593343         0.179666        -0.609814
 H        -0.424306        -1.289654         0.487221
 H         2.698420        -0.213408         2.095963
 H         4.490811        -0.873289        -0.396371
 H         2.938766        -1.960809         0.241117
 H         1.947996        -2.227244        -2.207069
 H         3.523017         1.593452        -1.639181
 H         1.680121         1.299770        -1.847243
 H         2.166568         2.945067         0.446980
