19
Iteration:  4199
 C        -0.149004        -0.423538         0.446122
 C         1.338036        -0.166991         0.183988
 C         2.664126        -0.238544         0.860077
 C         3.420300        -1.060675        -0.195346
 C         2.397920        -0.480558        -1.137907
 O         1.858623        -1.150238        -2.257939
 C         2.641233         1.013968        -1.261279
 C         2.318923         1.070947         0.175004
 O         1.786365         2.300530         0.831010
 H        -0.828531         0.194778        -0.114034
 H        -0.313904        -1.402188         0.027426
 H        -0.501934        -0.502605         1.442251
 H         2.783424        -0.352153         1.887125
 H         4.494907        -0.949276        -0.517961
 H         3.264936        -2.078993        -0.036979
 H         2.562156        -1.272530        -2.923802
 H         3.684149         1.396299        -1.456765
 H         2.087518         1.651036        -1.864717
 H         2.519386         2.906250         0.659130
