19
Iteration:  1711charge 0 multiplicity 1
 C         0.028622        -0.751178         0.460378
 C         1.345041        -0.201865         0.127312
 C         2.787488         0.034424         0.814147
 C         3.547271        -0.799603        -0.177517
 C         2.340690        -0.491642        -1.059516
 O         1.989721        -1.277840        -2.199828
 C         2.448892         1.056638        -1.380537
 C         2.015100         1.145742         0.064899
 O         1.837476         2.259394         0.861931
 H        -0.198993        -0.248598         1.356397
 H        -0.786449        -0.491513        -0.244738
 H         0.072567        -1.739324         0.838339
 H         3.208785         0.176146         1.814010
 H         4.471301        -0.404898        -0.562277
 H         3.579736        -1.918571        -0.106004
 H         1.532516        -2.021490        -1.716668
 H         3.469427         1.374771        -1.472766
 H         1.716434         1.363730        -2.053726
 H         1.205730         2.867268         0.475209
