19
Iteration:  3098charge 0 multiplicity 1
 C        -0.031605        -0.773285         0.605473
 C         1.354364        -0.345775         0.128727
 C         2.812442        -0.055408         0.760888
 C         3.515170        -0.694892        -0.293097
 C         2.283095        -0.504381        -1.189321
 O         2.053323        -1.113401        -2.347649
 C         2.244713         1.092963        -1.369760
 C         2.054578         1.113819         0.132825
 O         1.904016         2.260587         1.005597
 H        -0.740017         0.082028         0.522639
 H        -0.487610        -1.805280         0.386912
 H         0.099070        -0.813415         1.736627
 H         2.987843        -0.089027         1.830996
 H         4.486907        -0.441469        -0.543292
 H         3.783884        -1.742102        -0.280004
 H         2.249427        -2.089809        -2.313971
 H         3.258735         1.513618        -1.749187
 H         1.266732         1.425373        -1.958289
 H         2.640931         2.188766         1.636312
