19
Iteration:  2577
 C         0.032996        -0.725757         0.624288
 C         1.431496        -0.184802         0.136962
 C         2.725985         0.009102         0.854467
 C         3.530670        -0.885637        -0.124009
 C         2.354639        -0.485515        -1.167081
 O         2.004270        -1.147829        -2.298501
 C         2.538859         1.021320        -1.443284
 C         2.147145         1.159363         0.063852
 O         1.601333         2.230064         0.776937
 H        -0.683611         0.078171         0.924632
 H        -0.377749        -1.344936        -0.158227
 H         0.264049        -1.255100         1.553329
 H         2.924989         0.163539         1.871435
 H         4.612902        -0.701845        -0.245804
 H         3.548061        -1.927889         0.194740
 H         1.379116        -1.812889        -1.863473
 H         3.415128         1.486675        -1.827254
 H         1.606920         1.253709        -1.905417
 H         2.135330         2.426162         1.554935
