19
Iteration:   326
 C        -0.268726        -0.382788         0.469651
 C         1.226701        -0.109161         0.046398
 C         2.440010        -0.203681         0.918233
 C         3.331541        -1.073609         0.056788
 C         2.492687        -0.469047        -1.162422
 O         2.362232        -1.304041        -2.333405
 C         2.722052         0.972785        -1.193169
 C         2.052359         1.098048         0.163646
 O         1.903703         2.320031         0.713395
 H        -0.599641         0.161596         1.322782
 H        -0.824724        -0.015178        -0.464608
 H        -0.327318        -1.475570         0.500272
 H         2.330297        -0.258157         2.003093
 H         4.382756        -0.850021         0.049105
 H         3.111025        -2.220018         0.095826
 H         1.518634        -0.969013        -2.812916
 H         3.787301         1.408184        -1.330968
 H         2.188465         1.478243        -1.997810
 H         1.894431         3.057036         0.079340
