19
Iteration:   818charge 0 multiplicity 1
 C        -0.075680        -0.403659         0.309512
 C         1.355357        -0.077872         0.036359
 C         2.610341        -0.076752         0.807366
 C         3.422437        -0.979889        -0.130517
 C         2.393687        -0.490285        -1.119850
 O         2.146686        -1.323428        -2.168485
 C         2.555978         1.041764        -1.322851
 C         2.070885         1.164938         0.081689
 O         1.865224         2.212524         0.960617
 H        -0.499752         0.247919         1.082107
 H        -0.629747        -0.060670        -0.617415
 H        -0.313689        -1.421961         0.521557
 H         2.651189        -0.121287         1.876230
 H         4.452790        -1.019780        -0.365435
 H         3.286321        -2.055431         0.236804
 H         2.040650        -2.204326        -1.902048
 H         3.611488         1.302159        -1.621227
 H         1.873930         1.450718        -2.121641
 H         1.011952         2.094632         1.408621
