19
Iteration:  1439
 C        -0.084478        -0.379629         0.564468
 C         1.351310        -0.295245         0.155599
 C         2.769255        -0.100073         0.850997
 C         3.561894        -0.931949        -0.188776
 C         2.326689        -0.507630        -1.176287
 O         2.160135        -1.334467        -2.244491
 C         2.491958         1.054498        -1.282313
 C         2.112787         1.087742         0.141625
 O         1.630246         2.311549         0.723931
 H        -0.254664         0.256072         1.463460
 H        -0.771715         0.184067        -0.076776
 H        -0.412418        -1.349614         0.677860
 H         3.143909        -0.082155         1.902745
 H         4.517330        -0.433437        -0.543040
 H         3.654250        -1.967504        -0.081381
 H         1.280430        -1.511863        -2.561264
 H         3.522330         1.182333        -1.624041
 H         1.786182         1.188303        -2.047248
 H         2.195461         2.334483         1.541326
