19
Iteration:  3974
 C        -0.096899        -0.433389         0.435600
 C         1.386282        -0.219235         0.232506
 C         2.695354        -0.190840         0.802212
 C         3.365733        -0.969017        -0.264352
 C         2.326063        -0.493789        -1.222870
 O         2.088032        -1.183990        -2.411552
 C         2.466117         1.040057        -1.284281
 C         2.190835         1.088790         0.270514
 O         1.889751         2.250838         0.979853
 H        -0.326866        -0.983585         1.333139
 H        -0.622126         0.414666         0.840087
 H        -0.654247        -0.755030        -0.421555
 H         3.001535        -0.199717         1.887472
 H         4.503136        -0.790815        -0.624816
 H         3.303007        -2.095668        -0.217713
 H         1.123512        -1.335890        -2.423448
 H         3.435659         1.380643        -1.671825
 H         1.632116         1.461705        -1.908054
 H         2.625376         2.532311         1.591579
