19
Iteration:  3340
 C         0.070524        -0.678579         0.608660
 C         1.471241        -0.302684         0.261702
 C         2.900802        -0.131994         0.821875
 C         3.538116        -0.968102        -0.427351
 C         2.304262        -0.382078        -1.200200
 O         1.829186        -1.027122        -2.357994
 C         2.413546         1.213758        -1.227921
 C         2.129735         1.088820         0.175339
 O         1.731553         2.174770         0.906117
 H        -0.051506        -1.024037         1.613158
 H        -0.564117         0.190869         0.618316
 H        -0.105932        -1.436478        -0.108465
 H         3.066141        -0.171306         1.872797
 H         4.652578        -0.834786        -0.680323
 H         3.247240        -2.016788        -0.409456
 H         2.490887        -1.390044        -3.002797
 H         3.299202         1.580204        -1.657224
 H         1.464576         1.514492        -1.689545
 H         1.246556         1.736535         1.638962
