19
Iteration:  3388
 C         0.023907        -0.794300         0.586429
 C         1.296686        -0.173912         0.115691
 C         2.755022        -0.212588         0.751699
 C         3.496732        -0.757891        -0.431160
 C         2.270488        -0.338526        -1.274520
 O         1.933685        -1.284460        -2.314518
 C         2.414039         1.218184        -1.254959
 C         2.072272         1.099963         0.228660
 O         2.015275         2.172349         1.084638
 H        -0.283107        -0.401959         1.526546
 H        -0.775730        -0.397653        -0.017314
 H         0.266870        -1.848306         0.478530
 H         3.155591         0.023254         1.776751
 H         4.506671        -0.303045        -0.609586
 H         3.603810        -1.887039        -0.337787
 H         1.768704        -0.876879        -3.164395
 H         3.400017         1.604142        -1.371149
 H         1.667073         1.748779        -1.785309
 H         1.220423         2.206074         1.634119
