19
Iteration:   519charge 0 multiplicity 1
 C        -0.136057        -0.518180         0.323242
 C         1.293732        -0.159897         0.110819
 C         2.583220        -0.154984         0.927154
 C         3.274263        -1.084479         0.024102
 C         2.388330        -0.481647        -1.162261
 O         2.152395        -1.185665        -2.356651
 C         2.667715         0.968579        -1.178971
 C         2.061405         1.152003         0.179872
 O         1.931127         2.405771         0.679777
 H        -0.397258         0.146104         1.184531
 H        -0.720290        -0.163049        -0.543184
 H        -0.300097        -1.576449         0.474778
 H         2.603030        -0.217579         2.021087
 H         4.397067        -1.018739         0.031655
 H         2.887423        -2.095581         0.127301
 H         2.839950        -1.884920        -2.411351
 H         3.699457         1.376657        -1.184204
 H         2.185273         1.459960        -2.055265
 H         1.541770         2.375188         1.597094
