19
Iteration:  4977
 C        -0.034537        -0.430568         0.403150
 C         1.387934        -0.238954         0.088601
 C         2.645615        -0.024188         0.902535
 C         3.471423        -1.000729        -0.116648
 C         2.287972        -0.543358        -1.126487
 O         1.934319        -1.362757        -2.225153
 C         2.608775         0.939232        -1.244578
 C         2.162571         1.161983         0.158312
 O         1.907024         2.329481         0.784442
 H        -0.674122         0.225739        -0.234409
 H        -0.003018        -1.508092         0.174669
 H        -0.361408        -0.187596         1.527460
 H         2.763671         0.136536         1.928240
 H         4.448584        -0.622389        -0.218420
 H         3.330708        -1.995418         0.156182
 H         1.539564        -0.692579        -2.834173
 H         3.649732         1.047120        -1.591781
 H         2.010352         1.549350        -1.910005
 H         1.144060         2.778588         0.391504
