19
Iteration:   781charge 0 multiplicity 1
 C        -0.088248        -0.327880         0.307821
 C         1.382050        -0.233137         0.123080
 C         2.654417        -0.157028         0.924589
 C         3.492838        -0.952403        -0.096202
 C         2.374224        -0.593614        -1.091189
 O         2.076086        -1.157341        -2.341163
 C         2.545359         0.919668        -1.189366
 C         2.183068         1.107250         0.223476
 O         1.714599         2.309018         0.690337
 H        -0.400098         0.468954         1.068008
 H        -0.646291        -0.097987        -0.573571
 H        -0.563739        -1.324663         0.686342
 H         2.654746        -0.458977         2.004512
 H         4.528484        -0.545672        -0.362129
 H         3.426489        -1.961794         0.216357
 H         2.244509        -2.102697        -2.289933
 H         3.555931         1.248109        -1.501759
 H         1.799289         1.400468        -1.785798
 H         1.886616         2.368003         1.626108
