19
Iteration:   625
 C        -0.071703        -0.418593         0.149536
 C         1.369829        -0.156452         0.087103
 C         2.677691        -0.084293         0.962680
 C         3.362510        -0.986438        -0.013847
 C         2.344461        -0.495370        -1.072782
 O         2.066280        -1.199174        -2.205342
 C         2.644030         1.014019        -1.326061
 C         2.188509         1.131170         0.157614
 O         1.743138         2.203301         0.771889
 H        -0.530308         0.089102         1.031633
 H        -0.424631        -0.000988        -0.767413
 H        -0.421493        -1.549441         0.225504
 H         2.680470        -0.040183         2.067807
 H         4.446723        -0.833856        -0.179541
 H         3.240158        -2.029196         0.217773
 H         1.874112        -2.132495        -2.024433
 H         3.653935         1.233266        -1.609995
 H         1.846060         1.532041        -1.925309
 H         2.161759         2.193588         1.675612
