19
Iteration:  4627
 C        -0.131348        -0.491805         0.354891
 C         1.322807        -0.209465         0.088948
 C         2.735175        -0.071202         0.919965
 C         3.385664        -0.984229        -0.096868
 C         2.317128        -0.535071        -1.039943
 O         2.001887        -1.239895        -2.215458
 C         2.570363         0.957405        -1.361967
 C         2.149221         1.099487         0.133523
 O         1.967336         2.356455         0.814966
 H        -0.798200         0.369678         0.154121
 H        -0.420419        -1.413093        -0.204919
 H        -0.211400        -0.618484         1.450220
 H         2.991681         0.247125         1.914715
 H         4.395708        -0.630251        -0.497100
 H         3.397732        -2.016807         0.062582
 H         1.874104        -2.186972        -2.057906
 H         3.590129         1.399120        -1.603896
 H         1.820742         1.455828        -2.008206
 H         1.331892         2.918029         0.331686
