19
Iteration:  3088charge 0 multiplicity 1
 C        -0.042985        -0.799669         0.661115
 C         1.328562        -0.330788         0.082099
 C         2.736811        -0.049090         0.795982
 C         3.605911        -0.744532        -0.340811
 C         2.262482        -0.387568        -1.194349
 O         2.099735        -1.169030        -2.374328
 C         2.262700         1.067870        -1.339007
 C         2.011433         1.119487         0.196755
 O         1.959194         2.269563         0.968935
 H        -0.835330        -0.033429         0.482411
 H        -0.456008        -1.741689         0.089557
 H         0.120586        -1.074745         1.746773
 H         3.057389         0.024017         1.847233
 H         4.408132        -0.231985        -0.693729
 H         3.527280        -1.814906        -0.135631
 H         1.909093        -2.065835        -2.066249
 H         3.100605         1.675117        -1.839508
 H         1.294164         1.475000        -1.853650
 H         2.615853         2.249221         1.671606
