19
Iteration:   735charge 0 multiplicity 1
 C        -0.072432        -0.483646         0.433016
 C         1.289960        -0.075267         0.018865
 C         2.671581        -0.075072         0.924141
 C         3.320402        -1.062752         0.014106
 C         2.363814        -0.491875        -1.158198
 O         2.120938        -1.155781        -2.362425
 C         2.770181         1.020872        -1.298837
 C         2.195870         1.110505         0.172564
 O         1.687389         2.211309         0.832193
 H        -0.435853        -0.016254         1.367335
 H        -0.880313        -0.464236        -0.412294
 H         0.100080        -1.588931         0.638066
 H         2.529032        -0.254590         1.988437
 H         4.460874        -0.914280        -0.128603
 H         2.997684        -2.061241         0.289209
 H         1.688474        -2.051054        -2.172372
 H         3.783940         1.246353        -1.567546
 H         2.069826         1.451530        -2.073780
 H         1.943781         3.028840         0.395978
