19
Iteration:   475charge 0 multiplicity 1
 C        -0.031227        -0.621356         0.229360
 C         1.237554        -0.034737        -0.101659
 C         2.467265        -0.077532         0.939034
 C         3.310847        -0.986803         0.082765
 C         2.404190        -0.501113        -1.165948
 O         1.949523        -1.373862        -2.256683
 C         2.830509         1.043367        -1.281948
 C         2.112106         1.230141         0.125740
 O         1.875299         2.364021         0.955769
 H        -0.351925        -0.482977         1.295394
 H        -0.795594        -0.385218        -0.497288
 H         0.208560        -1.653627         0.005512
 H         2.229151        -0.155412         2.021308
 H         4.451037        -0.948951         0.076199
 H         3.008138        -1.985674         0.374163
 H         2.738134        -1.840254        -2.630265
 H         3.925824         1.054824        -1.366498
 H         2.359728         1.591809        -2.153759
 H         2.702764         2.917989         0.876015
