19
Iteration:  1184
 C        -0.034678        -0.474914         0.310566
 C         1.381727        -0.110543         0.016736
 C         2.677328        -0.091422         0.855502
 C         3.434185        -0.979354        -0.079559
 C         2.357287        -0.477337        -1.161965
 O         2.012756        -1.306502        -2.180310
 C         2.705973         1.038509        -1.309342
 C         2.176833         1.135045         0.078478
 O         1.660681         2.203257         0.941033
 H        -0.191837         0.093798         1.280263
 H        -0.817221        -0.072240        -0.359860
 H        -0.009434        -1.491293         0.543251
 H         2.769274         0.059420         1.949527
 H         4.471108        -0.887703        -0.299823
 H         3.006615        -2.016680        -0.061667
 H         1.257334        -1.881208        -1.869775
 H         3.770345         1.272719        -1.456906
 H         2.152047         1.586169        -2.023272
 H         2.092474         3.074922         0.713976
