19
Iteration:  4850
 C        -0.078935        -0.442053         0.421150
 C         1.392453        -0.159905         0.159390
 C         2.757203        -0.144525         0.981087
 C         3.313014        -1.022056        -0.094410
 C         2.354050        -0.539648        -1.187212
 O         2.006568        -1.355752        -2.236563
 C         2.592190         0.933391        -1.310176
 C         2.126010         1.123923         0.202544
 O         1.919250         2.496911         0.739877
 H        -0.584141        -0.207049        -0.522148
 H        -0.186619        -1.511552         0.380695
 H        -0.393791        -0.257899         1.390188
 H         2.960999        -0.150720         2.007726
 H         4.377898        -0.944628        -0.470929
 H         3.333057        -2.137826         0.028830
 H         1.672061        -0.721145        -2.884122
 H         3.544528         1.435050        -1.740211
 H         1.730190         1.197342        -1.968790
 H         0.932048         2.622716         0.775704
