19
Iteration:  4413charge 0 multiplicity 1
 C        -0.072910        -0.496971         0.421654
 C         1.349230        -0.113227         0.073832
 C         2.668524        -0.147702         0.893417
 C         3.423935        -0.992882        -0.146914
 C         2.289276        -0.568867        -1.083590
 O         1.986387        -1.331114        -2.257057
 C         2.660119         0.991513        -1.279410
 C         2.164236         1.153294         0.097471
 O         1.919238         2.374075         0.879297
 H        -0.504886        -1.350156        -0.049691
 H        -0.276054        -0.497190         1.465498
 H        -0.669664         0.280671        -0.058565
 H         2.617599        -0.232006         1.903496
 H         4.447317        -0.705855        -0.247224
 H         3.460703        -2.134749         0.087304
 H         1.009260        -1.488376        -2.317120
 H         3.615117         1.477657        -1.537946
 H         1.999161         1.484344        -2.148778
 H         1.693333         3.142693         0.346733
