19
Iteration:  1292charge 0 multiplicity 1
 C         0.032026        -0.628154         0.518148
 C         1.288709        -0.129829         0.006618
 C         2.627164         0.003456         0.848397
 C         3.373873        -0.944266        -0.039884
 C         2.340301        -0.481002        -1.156577
 O         1.979637        -1.293666        -2.248613
 C         2.631596         0.988331        -1.400840
 C         2.180209         1.191891         0.110293
 O         1.832933         2.277839         0.932580
 H        -0.268959        -0.195227         1.513219
 H        -0.851704        -0.492805        -0.237549
 H         0.047076        -1.692554         0.630384
 H         2.810667         0.195924         1.917054
 H         4.404919        -0.815176        -0.334618
 H         3.234537        -2.065766         0.264821
 H         2.815514        -1.367895        -2.840546
 H         3.705996         0.958812        -1.731256
 H         1.968621         1.518984        -2.137077
 H         1.103997         2.777374         0.495545
