19
Iteration:  4489
 C        -0.045158        -0.600439         0.380495
 C         1.305528        -0.105294         0.112884
 C         2.685828        -0.089668         0.921729
 C         3.321168        -0.935906        -0.088446
 C         2.303196        -0.459208        -1.110354
 O         1.880082        -1.345525        -2.182237
 C         2.685296         0.973503        -1.324570
 C         2.215779         1.142244         0.144167
 O         2.001556         2.359076         0.794588
 H        -0.497661        -1.044543        -0.498177
 H        -0.114061        -1.301753         1.181196
 H        -0.782498         0.210217         0.479836
 H         2.764671        -0.265534         1.916238
 H         4.349617        -0.690942        -0.385478
 H         3.281619        -2.046305         0.339083
 H         2.079146        -0.862088        -2.998960
 H         3.783453         1.050857        -1.578239
 H         1.903070         1.490816        -2.049448
 H         1.133646         2.710644         0.486274
