19
Iteration:  2202
 C         0.126539        -0.822666         0.617521
 C         1.381023        -0.118559         0.084415
 C         2.790047        -0.046725         0.804887
 C         3.397317        -0.962471        -0.198183
 C         2.314951        -0.416475        -1.138433
 O         2.107530        -1.373913        -2.222852
 C         2.412081         1.142181        -1.341744
 C         2.240863         1.193004         0.125647
 O         1.614827         2.352166         0.807825
 H         0.082578        -0.739434         1.651533
 H        -0.777906        -0.323519         0.247569
 H         0.090275        -1.919075         0.465744
 H         2.826991        -0.209669         1.904994
 H         4.407884        -0.686974        -0.485598
 H         3.211205        -2.056765        -0.074332
 H         1.428209        -0.936044        -2.767668
 H         3.285777         1.607721        -1.779784
 H         1.431245         1.386440        -1.695377
 H         2.164918         3.175927         0.834485
