19
Iteration:  2580
 C         0.032792        -0.730486         0.617942
 C         1.431014        -0.169862         0.139989
 C         2.719998         0.022635         0.841266
 C         3.524350        -0.888414        -0.112564
 C         2.352061        -0.470248        -1.155580
 O         2.011188        -1.162485        -2.291425
 C         2.532855         1.021333        -1.433507
 C         2.120174         1.160121         0.077771
 O         1.627744         2.213781         0.772501
 H        -0.747254         0.112066         0.844196
 H        -0.390301        -1.397951        -0.155256
 H         0.289170        -1.325178         1.520895
 H         2.867719         0.253889         1.917153
 H         4.619763        -0.636611        -0.314314
 H         3.616822        -1.968492         0.162227
 H         1.351711        -1.789981        -1.973547
 H         3.433950         1.561029        -1.890185
 H         1.531810         1.264856        -1.914901
 H         2.301151         2.342101         1.501793
