19
Iteration:  2686charge 0 multiplicity 1
 C         0.156448        -0.695027         0.595126
 C         1.457636        -0.145848         0.083632
 C         2.870994         0.004716         0.840090
 C         3.592468        -0.897311        -0.206737
 C         2.321345        -0.528178        -1.155302
 O         1.787556        -1.204906        -2.228004
 C         2.537658         0.991374        -1.300697
 C         2.126099         1.167901         0.150983
 O         1.512716         2.223019         0.773601
 H        -0.510822        -0.702699        -0.337594
 H         0.261160        -1.785415         0.773629
 H        -0.533633        -0.128533         1.283272
 H         3.037196         0.224332         1.899969
 H         4.619556        -0.546745        -0.405855
 H         3.526676        -1.942393         0.103730
 H         2.296216        -1.086939        -3.038642
 H         3.502527         1.511831        -1.598486
 H         1.715856         1.486859        -1.849496
 H         2.171981         2.477617         1.464692
