19
Iteration:  3747charge 0 multiplicity 1
 C         0.064709        -0.421619         0.562536
 C         1.474668        -0.291519         0.089582
 C         2.823680        -0.283108         0.846444
 C         3.463251        -0.936739        -0.372300
 C         2.337509        -0.472500        -1.197800
 O         1.874955        -1.128425        -2.381373
 C         2.567542         1.175046        -1.261864
 C         2.199231         1.050321         0.275661
 O         1.617812         2.113319         0.996874
 H        -0.383819         0.520194         0.903241
 H        -0.618878        -0.769183        -0.287693
 H        -0.173659        -1.102446         1.464852
 H         3.185808        -0.354299         1.878967
 H         4.635726        -0.516943        -0.664869
 H         3.275953        -2.003684        -0.263467
 H         0.959354        -0.840354        -2.659158
 H         3.585373         1.355905        -1.556116
 H         1.924998         1.796482        -1.886568
 H         2.213901         2.875954         1.029034
