19
Iteration:  3748charge 0 multiplicity 1
 C         0.067123        -0.423772         0.563799
 C         1.464608        -0.285514         0.092202
 C         2.830216        -0.285312         0.845907
 C         3.464347        -0.937433        -0.375873
 C         2.333962        -0.474170        -1.201339
 O         1.877008        -1.118548        -2.377144
 C         2.570860         1.169235        -1.260466
 C         2.202672         1.048251         0.264294
 O         1.610477         2.117875         0.997910
 H        -0.394444         0.513486         0.903019
 H        -0.573474        -0.779158        -0.307246
 H        -0.188680        -1.090605         1.462551
 H         3.182838        -0.343893         1.904109
 H         4.634366        -0.533340        -0.673970
 H         3.291447        -2.023148        -0.262207
 H         0.934854        -0.882313        -2.619765
 H         3.609538         1.346876        -1.540267
 H         1.919157         1.779549        -1.874779
 H         2.234932         2.847501         1.046839
