19
Iteration:   635charge 0 multiplicity 1
 C        -0.114155        -0.438219         0.156383
 C         1.365537        -0.213665         0.125682
 C         2.636103        -0.089467         0.939542
 C         3.422190        -1.031443         0.034864
 C         2.407556        -0.511267        -1.097697
 O         2.037072        -1.159359        -2.267681
 C         2.607135         1.011524        -1.269430
 C         2.161248         1.052527         0.169999
 O         1.820367         2.332413         0.741289
 H        -0.711907        -0.014978         0.960152
 H        -0.647825        -0.103777        -0.737307
 H        -0.264467        -1.576022         0.137525
 H         2.921255         0.001009         1.990910
 H         4.519591        -0.940676        -0.097605
 H         3.112702        -1.997270         0.439500
 H         2.035861        -2.150122        -2.095468
 H         3.484668         1.533484        -1.611313
 H         1.740003         1.344068        -1.902959
 H         1.928711         2.354523         1.731926
