19
Iteration:  3231
 C         0.075311        -0.892384         0.502916
 C         1.386552        -0.190598         0.203042
 C         2.750955        -0.122780         0.828267
 C         3.477444        -0.912992        -0.412250
 C         2.264655        -0.330202        -1.253245
 O         2.061003        -1.269508        -2.327533
 C         2.265004         1.198322        -1.229465
 C         2.154178         1.125948         0.299250
 O         1.868161         2.314176         0.993778
 H         0.046681        -1.892637         0.080265
 H        -0.183975        -0.944916         1.630455
 H        -0.810156        -0.314552         0.156086
 H         3.015435        -0.149964         1.866537
 H         4.461466        -0.463115        -0.860726
 H         3.217331        -1.998862        -0.417668
 H         1.322825        -0.868426        -2.901575
 H         3.164928         1.506905        -1.808334
 H         1.400443         1.646125        -1.782050
 H         2.673897         2.831705         1.234347
