19
Iteration:  4838charge 0 multiplicity 1
 C        -0.018087        -0.437916         0.395048
 C         1.403458        -0.136194         0.187816
 C         2.722736        -0.148313         0.961712
 C         3.432739        -1.089125        -0.180197
 C         2.309227        -0.539740        -1.041396
 O         2.002636        -1.344046        -2.234543
 C         2.546320         0.961919        -1.323377
 C         2.160132         1.171943         0.165695
 O         1.872941         2.412211         0.738501
 H        -0.657677        -0.127330        -0.438799
 H        -0.140661        -1.470071         0.648872
 H        -0.534953         0.258113         1.042066
 H         2.753633        -0.158282         2.041837
 H         4.532314        -0.894802        -0.460105
 H         3.044574        -2.081053         0.106302
 H         1.644915        -0.811938        -2.965257
 H         3.629966         1.360775        -1.598044
 H         1.781798         1.414404        -1.970899
 H         0.931783         2.594560         0.664998
