19
Iteration:   685charge 0 multiplicity 1
 C        -0.138894        -0.791684         0.375937
 C         1.173762        -0.025161         0.032606
 C         2.502527        -0.080103         0.963088
 C         3.267656        -0.991310        -0.038935
 C         2.334858        -0.432211        -1.162209
 O         2.164427        -1.188565        -2.310861
 C         2.746441         1.056821        -1.239342
 C         2.181698         1.104996         0.179904
 O         2.044600         2.353859         0.728257
 H        -0.500214        -0.371249         1.370187
 H        -1.055874        -0.532461        -0.346465
 H        -0.053757        -1.897278         0.463045
 H         2.574301         0.000404         2.064556
 H         4.324281        -0.776430        -0.133916
 H         3.002242        -2.089513         0.092053
 H         2.097268        -2.100308        -2.148112
 H         3.857323         1.345472        -1.301928
 H         2.151742         1.693780        -1.865360
 H         1.116140         2.569856         0.897422
