19
Iteration:  4679
 C         0.016753        -0.601639         0.426427
 C         1.372069        -0.098695        -0.004639
 C         2.641780        -0.080725         0.820955
 C         3.373612        -1.017468        -0.078207
 C         2.367706        -0.472760        -1.098341
 O         1.790435        -1.282157        -2.134671
 C         2.738832         0.995435        -1.316359
 C         2.207884         1.181457         0.140832
 O         1.862735         2.345944         0.812613
 H        -0.700712        -0.265993        -0.290764
 H         0.043029        -1.662012         0.402040
 H        -0.231296        -0.115882         1.317953
 H         2.551957        -0.245004         1.922996
 H         4.429414        -1.049302        -0.371923
 H         2.950603        -1.980192         0.333447
 H         2.572642        -1.654371        -2.595386
 H         3.759761         1.304618        -1.437215
 H         1.960629         1.458042        -2.016459
 H         1.248302         2.897915         0.317126
