19
Iteration:  1784
 C         0.061953        -0.810966         0.626551
 C         1.405646        -0.205497         0.184848
 C         2.795551        -0.119222         0.919098
 C         3.510170        -0.782053        -0.259670
 C         2.257910        -0.424678        -1.136373
 O         1.975896        -1.311609        -2.169375
 C         2.572421         1.075674        -1.365970
 C         2.050704         1.163378         0.103115
 O         1.647499         2.336568         0.672615
 H        -0.242776        -0.477345         1.637160
 H        -0.739371        -0.452733         0.007623
 H         0.155224        -1.954631         0.730703
 H         3.067165         0.165605         1.931117
 H         4.514563        -0.501713        -0.591343
 H         3.407041        -1.902180        -0.102194
 H         1.908688        -0.875897        -2.997736
 H         3.630449         1.308945        -1.597231
 H         1.780538         1.409384        -2.111359
 H         2.341416         2.691628         1.292202
