19
Iteration:  4882
 C        -0.084639        -0.563244         0.497040
 C         1.265354        -0.093117         0.039208
 C         2.634826        -0.040278         0.916937
 C         3.329367        -0.965017        -0.065673
 C         2.329705        -0.513127        -1.130610
 O         2.039854        -1.331751        -2.132798
 C         2.658309         1.019610        -1.359627
 C         2.099667         1.102448         0.036044
 O         2.043509         2.316305         0.791994
 H        -0.858794         0.121260         0.141096
 H        -0.054623        -1.536268         0.050928
 H        -0.109660        -0.746274         1.552427
 H         2.531348         0.054943         1.957256
 H         4.377880        -0.618191        -0.447911
 H         3.187728        -2.061386         0.022561
 H         1.585404        -1.004620        -2.918260
 H         3.746296         1.156574        -1.682171
 H         1.979561         1.390230        -2.132773
 H         1.162328         2.692724         0.827994
