19
Iteration:  1717charge 0 multiplicity 1
 C         0.052714        -0.755078         0.470998
 C         1.332971        -0.165410         0.184967
 C         2.771436         0.058241         0.819674
 C         3.550438        -0.801908        -0.186381
 C         2.311148        -0.484857        -1.017046
 O         2.018159        -1.291689        -2.218762
 C         2.454993         1.048661        -1.392970
 C         2.014987         1.149140         0.014729
 O         1.849490         2.231550         0.900931
 H        -0.475832        -0.217742         1.370565
 H        -0.699704        -0.545122        -0.292344
 H         0.151085        -1.923538         0.602635
 H         3.069001         0.265670         1.843577
 H         4.461390        -0.442808        -0.735284
 H         3.550664        -1.903870        -0.020680
 H         1.350586        -1.976004        -1.876148
 H         3.463405         1.517344        -1.611252
 H         1.606950         1.227551        -2.180861
 H         1.442349         2.947304         0.375158
