19
Iteration:  1072charge 0 multiplicity 1
 C        -0.014344        -0.557402         0.392863
 C         1.301530        -0.156762        -0.032337
 C         2.579252        -0.086967         0.855347
 C         3.402932        -0.953104        -0.052158
 C         2.357803        -0.454358        -1.159980
 O         2.093985        -1.281585        -2.304342
 C         2.694989         1.004975        -1.253533
 C         2.096094         1.137520         0.134233
 O         1.772548         2.325991         0.835577
 H        -0.253305        -0.017906         1.323942
 H        -0.785492        -0.036327        -0.322609
 H        -0.344874        -1.554775         0.565552
 H         2.502754         0.007921         1.922836
 H         4.465092        -0.842006        -0.279111
 H         3.196532        -2.009170         0.407527
 H         1.681428        -2.104678        -1.935504
 H         3.765074         1.231447        -1.318579
 H         2.238931         1.665079        -2.012959
 H         2.310731         2.318715         1.633766
