19
Iteration:  1415
 C        -0.032806        -0.453400         0.530979
 C         1.332631        -0.136259         0.085389
 C         2.686214        -0.028208         0.937276
 C         3.417765        -0.788286        -0.241530
 C         2.340295        -0.539951        -1.212818
 O         2.167063        -1.475281        -2.243229
 C         2.525413         1.105674        -1.362558
 C         2.128068         1.110969         0.135360
 O         1.747630         2.258063         0.832669
 H        -0.342432         0.132107         1.412012
 H        -0.805031        -0.065714        -0.179604
 H        -0.148152        -1.441016         0.649570
 H         2.954196        -0.226645         1.979719
 H         4.391530        -0.401786        -0.492125
 H         3.445582        -1.900269        -0.121836
 H         1.315221        -2.017789        -2.120247
 H         3.565728         1.137724        -1.659153
 H         1.827741         1.539989        -2.010818
 H         2.054420         2.043145         1.750417
