19
Iteration:  3374
 C         0.039300        -0.726480         0.612354
 C         1.411139        -0.236274         0.066272
 C         2.669980        -0.163563         0.756222
 C         3.550428        -0.744590        -0.376488
 C         2.290526        -0.401970        -1.271492
 O         1.867890        -1.288449        -2.353793
 C         2.441692         1.185445        -1.314373
 C         2.120269         1.112443         0.220595
 O         1.951873         2.236602         1.155895
 H         0.103624        -0.764744         1.673114
 H        -0.870683        -0.309565         0.186855
 H        -0.215676        -1.756654         0.424265
 H         2.708188        -0.391934         1.850142
 H         4.480430        -0.140155        -0.692838
 H         3.684860        -1.839904        -0.455415
 H         2.168885        -0.785393        -3.174858
 H         3.314785         1.500767        -1.806992
 H         1.638251         1.683900        -1.820820
 H         1.254486         1.904163         1.781881
