19
Iteration:   720charge 0 multiplicity 1
 C         0.100230        -0.614722         0.401003
 C         1.302051        -0.050011        -0.100413
 C         2.535401        -0.005314         0.901128
 C         3.235403        -1.053156        -0.028865
 C         2.353675        -0.562452        -1.123140
 O         2.136633        -1.170745        -2.340779
 C         2.738905         0.930353        -1.286880
 C         2.116998         1.198533         0.098447
 O         1.776162         2.277976         0.978667
 H         0.011212         0.017011         1.295681
 H        -0.816273        -0.208793        -0.348875
 H         0.070514        -1.639538         0.674577
 H         2.422680         0.120545         1.973747
 H         4.334220        -1.146592        -0.171312
 H         2.965682        -2.148001         0.299425
 H         1.783960        -2.016969        -2.179532
 H         3.850421         1.214592        -1.408720
 H         2.110156         1.422371        -2.079430
 H         1.734103         3.126845         0.512249
