19
Iteration:  4160charge 0 multiplicity 1
 C        -0.073844        -0.265214         0.482362
 C         1.404389        -0.287955         0.082884
 C         2.623458        -0.136452         0.850193
 C         3.386302        -0.996196        -0.220556
 C         2.296989        -0.465017        -1.247857
 O         1.995409        -1.228629        -2.341127
 C         2.576588         1.035765        -1.292635
 C         2.193081         1.148614         0.189825
 O         1.853220         2.188605         0.963253
 H        -0.724837        -0.202515        -0.447033
 H        -0.274526        -1.279534         0.925583
 H        -0.289662         0.568086         1.217090
 H         2.605984        -0.200427         1.929496
 H         4.454388        -0.857758        -0.378959
 H         3.179882        -2.076195         0.120000
 H         2.538588        -2.034022        -2.393486
 H         3.582855         1.253030        -1.715997
 H         1.721639         1.263937        -2.004679
 H         2.401326         2.376511         1.769319
