19
Iteration:  1396
 C         0.023285        -0.551369         0.455840
 C         1.385578        -0.149426         0.016307
 C         2.605203        -0.069088         0.790620
 C         3.507635        -0.943482        -0.094888
 C         2.359531        -0.492137        -1.146749
 O         2.080700        -1.383279        -2.195807
 C         2.472666         1.095047        -1.418196
 C         2.114199         1.158457         0.066802
 O         1.792393         2.319568         0.879321
 H        -0.234806         0.076936         1.384554
 H        -0.776462        -0.289839        -0.265138
 H        -0.095673        -1.690043         0.796144
 H         2.571243         0.100506         1.905240
 H         4.625252        -0.669885        -0.176422
 H         3.386044        -1.943913         0.180679
 H         1.356909        -1.960895        -1.845013
 H         3.444842         1.613126        -1.744575
 H         1.540390         1.471615        -1.878750
 H         2.261111         2.307250         1.769304
