19
Iteration:  3006charge 0 multiplicity 1
 C         0.195927        -0.816851         0.578924
 C         1.559234        -0.231723         0.163834
 C         2.782396        -0.077680         0.825720
 C         3.548587        -0.913183        -0.230935
 C         2.365505        -0.407231        -1.192998
 O         1.648346        -0.974696        -2.260916
 C         2.637479         1.067176        -1.380929
 C         2.147239         1.153983         0.104474
 O         1.536067         2.139275         0.907548
 H        -0.475812         0.037535         0.760751
 H        -0.196656        -1.349967        -0.256877
 H         0.102021        -1.442095         1.485279
 H         2.881117        -0.040207         1.939827
 H         4.640520        -0.692279        -0.519779
 H         3.647746        -1.979221        -0.166747
 H         1.680968        -1.921626        -2.217383
 H         3.691894         1.385432        -1.446767
 H         1.973089         1.625061        -1.992659
 H         1.910868         3.027672         0.762218
