19
Iteration:  2224
 C         0.187118        -0.696092         0.622487
 C         1.454195        -0.183950         0.178857
 C         2.756972         0.011071         0.850940
 C         3.491944        -0.859873        -0.177795
 C         2.339247        -0.423166        -1.160195
 O         2.002943        -1.268382        -2.253140
 C         2.501309         1.088257        -1.412898
 C         2.059331         1.104464         0.066573
 O         1.580070         2.212300         0.806307
 H        -0.123881        -0.499771         1.593066
 H        -0.533497        -0.264604        -0.080432
 H         0.128637        -1.795175         0.648034
 H         2.955363         0.073881         1.930126
 H         4.543913        -0.749585        -0.427676
 H         3.173620        -1.920373        -0.037682
 H         1.042146        -1.237184        -2.507106
 H         3.534842         1.425630        -1.504629
 H         1.767530         1.331479        -2.166863
 H         2.357504         2.616335         1.194451
