19
Iteration:   426
 C        -0.123508        -0.454956         0.073818
 C         1.329621        -0.150851         0.171668
 C         2.648034        -0.232069         1.088617
 C         3.396531        -1.050565        -0.008658
 C         2.412466        -0.510433        -1.071549
 O         1.941798        -1.247387        -2.210673
 C         2.724532         1.004604        -1.206967
 C         2.246275         1.066612         0.254854
 O         1.780712         2.379021         0.696963
 H        -0.620714         0.055649         0.879215
 H        -0.482850        -0.064277        -0.921690
 H        -0.317928        -1.570694        -0.013861
 H         2.478165        -0.142658         2.146701
 H         4.381101        -0.616693        -0.091497
 H         3.406502        -2.169878         0.173807
 H         2.494288        -0.933791        -2.951052
 H         3.685629         1.430349        -1.625208
 H         1.943195         1.507251        -1.806149
 H         1.525377         2.895229        -0.065163
