19
Iteration:  2637charge 0 multiplicity 1
 C         0.026062        -0.820284         0.367822
 C         1.373708        -0.130463         0.165888
 C         2.744731        -0.109173         0.824503
 C         3.502774        -0.795363        -0.274483
 C         2.273679        -0.462012        -1.110701
 O         2.065329        -1.429062        -2.097450
 C         2.337505         1.166430        -1.302677
 C         2.127034         1.201753         0.200511
 O         1.842075         2.325387         0.844743
 H        -0.923372        -0.328691         0.064213
 H         0.042927        -1.822069        -0.125356
 H        -0.106579        -1.146466         1.452367
 H         2.970728        -0.141338         1.937129
 H         4.422258        -0.277309        -0.569991
 H         3.534935        -1.875606        -0.016714
 H         1.473324        -1.183935        -2.847694
 H         3.227728         1.773483        -1.698415
 H         1.480317         1.678059        -1.828055
 H         2.396254         2.938683         0.349515
