19
Iteration:  2827charge 0 multiplicity 1
 C         0.107987        -0.850645         0.465312
 C         1.374547        -0.127150         0.122246
 C         2.846319        -0.021720         0.828112
 C         3.597642        -0.862845        -0.295739
 C         2.330020        -0.425074        -1.160585
 O         1.782769        -1.130066        -2.233890
 C         2.558771         1.057701        -1.267119
 C         2.120542         1.135259         0.144152
 O         1.662708         2.187692         0.904474
 H         0.312273        -1.588254         1.216718
 H        -0.608867        -0.105185         0.829119
 H        -0.218179        -1.415493        -0.419379
 H         3.122264         0.047133         1.912634
 H         4.622062        -0.502938        -0.534821
 H         3.333741        -1.828720         0.065847
 H         1.359880        -1.832926        -1.674645
 H         3.568278         1.398617        -1.539959
 H         1.912016         1.571239        -1.987297
 H         1.889585         3.043102         0.477321
