19
Iteration:  1707
 C         0.006030        -0.733675         0.468368
 C         1.390779        -0.223857         0.089495
 C         2.791471         0.009571         0.823480
 C         3.532418        -0.797358        -0.189988
 C         2.355538        -0.487852        -1.131988
 O         1.969709        -1.271887        -2.173505
 C         2.451701         1.046379        -1.348372
 C         2.021595         1.144950         0.106784
 O         1.827428         2.285701         0.839205
 H        -0.103893        -0.195738         1.462877
 H        -0.787290        -0.543854        -0.245292
 H        -0.013821        -1.816949         0.915787
 H         3.147757         0.161544         1.832438
 H         4.548280        -0.398018        -0.429658
 H         3.629779        -1.925421        -0.015056
 H         1.633751        -2.096824        -1.754100
 H         3.509689         1.354139        -1.536715
 H         1.721832         1.525188        -2.113639
 H         1.028057         2.790792         0.528065
