19
Iteration:  1191charge 0 multiplicity 1
 C        -0.053398        -0.427972         0.335496
 C         1.372116        -0.172545         0.069553
 C         2.735596        -0.016032         0.893849
 C         3.414899        -0.981358        -0.123552
 C         2.393306        -0.532597        -1.209128
 O         2.012790        -1.304816        -2.202827
 C         2.698985         1.057170        -1.322487
 C         2.182074         1.112686         0.151677
 O         1.637133         2.208520         0.904172
 H        -0.384704        -0.034056         1.278746
 H        -0.769929        -0.090977        -0.525658
 H        -0.383237        -1.537817         0.510638
 H         2.732981         0.092637         1.963344
 H         4.507955        -0.954227        -0.386881
 H         3.215988        -2.039725         0.260284
 H         1.202481        -1.761121        -2.059885
 H         3.765606         1.358557        -1.403267
 H         2.155934         1.648507        -2.172167
 H         2.295582         2.953370         0.880303
