19
Iteration:  1125charge 0 multiplicity 1
 C        -0.144952        -0.668566         0.353341
 C         1.278665        -0.178062         0.247323
 C         2.651123        -0.072520         0.933432
 C         3.295258        -1.006872        -0.065967
 C         2.310683        -0.532972        -1.048139
 O         2.135642        -1.081673        -2.344186
 C         2.596869         0.938192        -1.255163
 C         2.031515         1.106987         0.102339
 O         2.078616         2.445485         0.700309
 H        -0.737353        -0.277838         1.151000
 H        -0.647556        -0.684056        -0.667686
 H        -0.094728        -1.785368         0.490425
 H         2.708501        -0.004540         2.006146
 H         4.316645        -0.906510        -0.473923
 H         3.255571        -2.071218         0.193407
 H         2.508029        -2.008010        -2.460025
 H         3.598588         1.332123        -1.155996
 H         1.902937         1.534350        -1.943659
 H         1.202319         2.602695         1.064099
