19
Iteration:  1479
 C         0.029295        -0.495364         0.535032
 C         1.439895        -0.145147         0.093072
 C         2.795201        -0.090684         0.945392
 C         3.444223        -0.972995        -0.114368
 C         2.360709        -0.522548        -1.118586
 O         1.971397        -1.312354        -2.262497
 C         2.507990         0.997508        -1.411053
 C         2.190927         1.182102         0.145705
 O         1.591621         2.216078         0.768909
 H        -0.175719         0.020997         1.511294
 H        -0.822936        -0.206655        -0.190990
 H         0.007430        -1.648160         0.673942
 H         3.026853         0.081606         2.010867
 H         4.488112        -0.717436        -0.195003
 H         3.265530        -2.093052         0.178032
 H         2.439073        -0.750443        -2.968363
 H         3.509986         1.360484        -1.777706
 H         1.668697         1.547322        -1.911877
 H         2.017221         3.070661         0.775565
