19
Iteration:  4605
 C        -0.146239        -0.423435         0.431496
 C         1.345176        -0.141611         0.195195
 C         2.633655        -0.103876         0.873939
 C         3.440195        -0.936019        -0.075601
 C         2.338534        -0.543097        -1.142396
 O         2.110622        -1.350331        -2.322640
 C         2.475502         0.956290        -1.368779
 C         2.150998         1.178886         0.177201
 O         2.025272         2.326038         0.804693
 H        -0.848314         0.414880         0.175582
 H        -0.263806        -1.315084        -0.239761
 H        -0.353767        -0.628562         1.496247
 H         2.685580        -0.151849         1.977839
 H         4.526922        -0.626076        -0.065150
 H         3.336176        -1.942464         0.175485
 H         1.446038        -2.069962        -2.205927
 H         3.401227         1.397912        -1.881587
 H         1.594907         1.334346        -1.960552
 H         1.126328         2.701262         0.831235
