19
Iteration:  3782
 C         0.025289        -0.583159         0.515864
 C         1.419544        -0.202997         0.061049
 C         2.827421        -0.188914         0.844629
 C         3.439323        -0.977044        -0.293389
 C         2.299033        -0.473678        -1.205359
 O         1.797757        -0.988263        -2.344336
 C         2.575225         1.136014        -1.295721
 C         2.243487         1.060092         0.175873
 O         1.706150         2.200670         1.008459
 H        -0.524541         0.366863         0.698486
 H        -0.434445        -1.041396        -0.401930
 H        -0.008395        -1.389834         1.308684
 H         3.154447        -0.202289         1.919251
 H         4.635785        -1.003800        -0.658771
 H         3.320031        -2.085369        -0.072807
 H         1.737672        -1.972520        -2.250170
 H         3.613532         1.437049        -1.554288
 H         1.812855         1.602045        -1.899045
 H         2.327722         2.230113         1.757083
