19
Iteration:  3693
 C        -0.020139        -0.601605         0.572261
 C         1.427540        -0.250987         0.138543
 C         2.813887        -0.159551         0.815288
 C         3.403889        -0.922204        -0.332755
 C         2.206917        -0.467707        -1.240354
 O         1.985563        -1.091162        -2.429315
 C         2.421510         1.133657        -1.335935
 C         2.129552         1.060863         0.204240
 O         1.898570         2.172939         1.163568
 H        -0.363956         0.166749         1.250337
 H        -0.713495        -0.333052        -0.284049
 H        -0.257492        -1.675634         0.817020
 H         2.935686        -0.029304         1.864891
 H         4.472819        -0.672659        -0.676919
 H         3.221230        -1.974204        -0.209556
 H         2.390003        -1.991963        -2.472265
 H         3.374711         1.554823        -1.721999
 H         1.639012         1.673128        -1.871267
 H         2.217243         3.032562         0.818518
