19
Iteration:  4648charge 0 multiplicity 1
 C        -0.018831        -0.546481         0.407708
 C         1.348437        -0.094577         0.150654
 C         2.674237        -0.076524         0.897076
 C         3.433000        -0.979963        -0.099117
 C         2.362036        -0.463705        -1.112865
 O         1.820758        -1.294600        -2.223273
 C         2.669264         0.977157        -1.312952
 C         2.189354         1.137129         0.096156
 O         1.859059         2.319669         0.806581
 H        -0.585463         0.211858        -0.088534
 H        -0.126552        -1.483379        -0.155579
 H        -0.477373        -0.619332         1.383175
 H         2.579713        -0.168504         1.989038
 H         4.539463        -0.969615        -0.461504
 H         3.221223        -1.975817         0.262076
 H         2.345670        -2.108175        -2.112344
 H         3.781123         1.264397        -1.448071
 H         2.054245         1.566639        -2.079072
 H         1.557815         3.019160         0.174296
