19
Iteration:  1748
 C         0.101391        -0.830681         0.463437
 C         1.413647        -0.168084         0.102601
 C         2.759710        -0.007195         0.879059
 C         3.474610        -0.827324        -0.157421
 C         2.308549        -0.453947        -1.090788
 O         2.054586        -1.438033        -2.246472
 C         2.342480         1.058794        -1.359765
 C         2.124054         1.199118         0.142427
 O         1.776179         2.418682         0.899103
 H        -0.145378        -0.263161         1.450161
 H        -0.708161        -0.800713        -0.284864
 H         0.117523        -1.890579         0.490015
 H         2.974697         0.067866         1.946862
 H         4.540580        -0.736525        -0.540010
 H         3.304160        -1.844349         0.004507
 H         1.165576        -1.277522        -2.557772
 H         3.048298         1.647182        -1.976666
 H         1.422222         1.285630        -2.005988
 H         2.359812         3.044241         0.398230
