19
Iteration:  2538
 C         0.097731        -0.562799         0.716194
 C         1.433056        -0.184153         0.153147
 C         2.803405        -0.087400         0.859539
 C         3.509532        -0.943214        -0.342191
 C         2.345406        -0.475715        -1.105493
 O         1.942621        -1.248450        -2.262702
 C         2.603502         1.104404        -1.206695
 C         2.130305         1.127278         0.156466
 O         1.437290         2.214859         0.615182
 H        -0.302600         0.225469         1.383179
 H        -0.694692        -0.601395        -0.073563
 H         0.148326        -1.614794         0.990863
 H         3.022330        -0.158203         1.967961
 H         4.495671        -0.639619        -0.766442
 H         3.447877        -2.017859         0.015936
 H         2.696885        -1.758872        -2.569481
 H         3.703761         1.431947        -1.378206
 H         1.948400         1.645342        -1.967226
 H         2.021423         2.854080         1.089933
