19
Iteration:  1338
 C         0.032973        -0.823133         0.389446
 C         1.333504        -0.115693         0.156104
 C         2.794684        -0.110899         0.962716
 C         3.409836        -0.995326        -0.180494
 C         2.292208        -0.476646        -1.068054
 O         1.838493        -1.144154        -2.229296
 C         2.738748         0.980955        -1.234279
 C         2.126230         1.145619         0.161075
 O         1.730517         2.487589         0.674584
 H        -0.509280        -0.246301         1.247100
 H        -0.663374        -0.822402        -0.542396
 H         0.141838        -1.839440         0.714738
 H         2.779993        -0.278908         2.021490
 H         4.487513        -0.855596        -0.317407
 H         3.253093        -2.087417         0.118875
 H         2.409473        -1.953082        -2.228745
 H         3.774577         1.397240        -1.450944
 H         2.004912         1.434215        -1.858213
 H         2.127687         3.084090         0.045031
