19
Iteration:    90
 C        -0.049081        -0.462637         0.116338
 C         1.394329        -0.180620         0.142859
 C         2.618969        -0.088997         1.031704
 C         3.289074        -1.114078         0.025018
 C         2.370879        -0.514099        -1.010672
 O         2.048199        -1.285096        -2.192708
 C         2.714099         1.005350        -1.254742
 C         2.135374         1.153533         0.166694
 O         1.770160         2.373518         0.629859
 H        -0.625346        -0.030548         0.971350
 H        -0.513386         0.160135        -0.623257
 H        -0.358253        -1.433429        -0.031137
 H         2.349798        -0.207762         2.113747
 H         4.384408        -1.038821        -0.251866
 H         2.993821        -2.064953         0.332754
 H         2.725480        -1.083063        -2.836348
 H         3.705759         1.336336        -1.546130
 H         1.938352         1.305659        -2.011649
 H         2.280932         2.630079         1.395560
