19
Iteration:  4186charge 0 multiplicity 1
 C        -0.144935        -0.382020         0.447578
 C         1.374669        -0.115071         0.123897
 C         2.738367        -0.260391         0.925436
 C         3.453946        -1.094568        -0.188387
 C         2.276148        -0.474768        -1.186263
 O         1.906021        -1.180698        -2.337401
 C         2.648201         1.059846        -1.244702
 C         2.143623         1.108227         0.244027
 O         1.829768         2.239686         0.809378
 H        -0.741354         0.196888        -0.242185
 H        -0.354507        -1.447186         0.344328
 H        -0.331969        -0.012276         1.488042
 H         2.822840        -0.267683         2.048733
 H         4.485127        -0.724378        -0.356179
 H         3.401243        -2.187864        -0.039476
 H         2.726244        -1.490632        -2.769227
 H         3.683297         1.308549        -1.658116
 H         1.753025         1.309695        -1.795756
 H         2.553140         2.845682         1.079363
