19
Iteration:  1420
 C        -0.073388        -0.415237         0.550356
 C         1.357358        -0.147797         0.123934
 C         2.694931        -0.043921         0.898452
 C         3.425761        -0.781490        -0.292947
 C         2.327368        -0.555846        -1.160119
 O         2.180957        -1.460760        -2.253650
 C         2.546869         1.059287        -1.364918
 C         2.130075         1.098524         0.129139
 O         1.727405         2.258243         0.821995
 H        -0.361875         0.070606         1.509789
 H        -0.716941        -0.051745        -0.254238
 H        -0.370793        -1.617729         0.721883
 H         2.882160        -0.194786         1.971373
 H         4.492881        -0.425270        -0.531073
 H         3.512983        -1.831904        -0.059727
 H         1.371868        -1.889255        -2.166217
 H         3.639059         1.211619        -1.593556
 H         1.803928         1.755147        -1.955040
 H         1.970242         2.219165         1.758986
