19
Iteration:  3445
 C         0.162146        -0.813166         0.542223
 C         1.472802        -0.229116         0.113195
 C         2.798964        -0.156559         0.876100
 C         3.550935        -0.958076        -0.353958
 C         2.310601        -0.406723        -1.156772
 O         1.747419        -0.965786        -2.451849
 C         2.455558         1.170231        -1.187701
 C         2.145468         1.101550         0.188646
 O         1.782041         2.159677         1.000387
 H        -0.514663        -0.096692         1.065126
 H        -0.212417        -1.173990        -0.412078
 H         0.160379        -1.753862         1.132816
 H         2.872372        -0.261374         1.926550
 H         4.582218        -0.656144        -0.639854
 H         3.430474        -1.994170        -0.006082
 H         0.816873        -1.312255        -2.359733
 H         3.397396         1.618419        -1.508281
 H         1.682887         1.625213        -1.792061
 H         2.213354         2.980501         0.667738
