19
Iteration:   442
 C        -0.188955        -0.559926         0.071901
 C         1.347808        -0.078440         0.082784
 C         2.620793        -0.119986         0.967906
 C         3.407696        -1.079262         0.047970
 C         2.390787        -0.474446        -1.035573
 O         1.958000        -1.190857        -2.120623
 C         2.725394         0.993743        -1.254427
 C         2.179480         1.126922         0.183423
 O         1.828896         2.310820         0.775524
 H        -0.846884        -0.336270         0.963321
 H        -0.676413        -0.189200        -0.819768
 H        -0.060189        -1.628261        -0.090927
 H         2.856826        -0.221235         2.038634
 H         4.526580        -1.103267        -0.142718
 H         3.001856        -2.049821         0.225744
 H         2.620737        -1.268454        -2.892662
 H         3.757073         1.275562        -1.496992
 H         2.030064         1.477996        -2.026605
 H         2.059804         2.994949         0.124292
