19
Iteration:  3403
 C         0.048695        -0.812229         0.497560
 C         1.393191        -0.277380         0.171305
 C         2.818344        -0.135483         0.759782
 C         3.395652        -0.871583        -0.420599
 C         2.207677        -0.361072        -1.189247
 O         2.014819        -1.160014        -2.286240
 C         2.384580         1.240884        -1.251608
 C         2.093716         1.122930         0.213855
 O         2.024290         2.194767         1.052609
 H        -0.361312        -0.394074         1.493724
 H        -0.677757        -0.824859        -0.360084
 H         0.025534        -1.887423         0.853964
 H         2.990662        -0.317569         1.789842
 H         4.296181        -0.560947        -0.903648
 H         3.443371        -1.938190        -0.402400
 H         1.241843        -0.751643        -2.744963
 H         3.403860         1.684573        -1.606822
 H         1.501419         1.749599        -1.840344
 H         1.084118         2.383740         1.205153
