19
Iteration:  4359charge 0 multiplicity 1
 C         0.008975        -0.338518         0.501718
 C         1.363293        -0.117143         0.061485
 C         2.685118        -0.160933         0.885492
 C         3.363437        -1.123075        -0.210818
 C         2.374343        -0.529359        -1.127072
 O         2.001831        -1.311086        -2.254192
 C         2.671942         0.954034        -1.327919
 C         2.213711         1.128167         0.175051
 O         1.771804         2.369321         0.858606
 H        -0.013554        -1.192940         1.156568
 H        -0.487729         0.566273         0.897466
 H        -0.596964        -0.491283        -0.432004
 H         2.858729        -0.201277         1.911060
 H         4.389815        -0.893100        -0.234140
 H         3.095202        -2.129378         0.217413
 H         1.413357        -0.695863        -2.761021
 H         3.653240         1.205699        -1.575259
 H         1.987128         1.496505        -2.050182
 H         0.823538         2.212775         0.817474
