19
Iteration:  3078charge 0 multiplicity 1
 C         0.039052        -0.831381         0.654139
 C         1.339902        -0.227123         0.199572
 C         2.681288        -0.118808         0.785155
 C         3.502665        -0.750991        -0.372262
 C         2.320988        -0.390612        -1.251953
 O         2.106982        -1.235820        -2.393269
 C         2.255754         1.191180        -1.268140
 C         2.043274         1.094634         0.213262
 O         1.942744         2.303012         0.909178
 H        -0.810486        -0.117298         0.634117
 H        -0.136933        -1.637344        -0.160357
 H        -0.105858        -1.251798         1.703830
 H         2.791643        -0.073947         1.888217
 H         4.428060        -0.325747        -0.687310
 H         3.805522        -1.812273        -0.098605
 H         1.627003        -1.949013        -1.999343
 H         3.199880         1.580269        -1.745780
 H         1.274429         1.357095        -1.797157
 H         2.599968         2.133467         1.592763
