19
Iteration:  1564charge 0 multiplicity 1
 C        -0.001069        -0.788256         0.412201
 C         1.417960        -0.211509         0.181090
 C         2.755592         0.052024         0.892489
 C         3.425643        -0.939353        -0.107040
 C         2.305606        -0.526178        -1.078063
 O         2.070154        -1.271575        -2.259211
 C         2.419050         1.066899        -1.344743
 C         2.012806         1.145016         0.119560
 O         1.905404         2.457163         0.723268
 H        -0.563908        -0.594452         1.249906
 H        -0.494887        -0.672843        -0.496556
 H        -0.024915        -1.906008         0.591295
 H         3.064883         0.050311         1.955564
 H         4.483400        -0.874206        -0.380202
 H         3.378849        -1.997132         0.218492
 H         1.138648        -1.443136        -2.179921
 H         3.260087         1.576183        -1.808440
 H         1.551775         1.328676        -2.040092
 H         2.237437         2.561642         1.664448
