19
Iteration:  4624charge 0 multiplicity 1
 C        -0.122301        -0.486662         0.363670
 C         1.292590        -0.191328         0.092918
 C         2.723560        -0.074897         0.937194
 C         3.398425        -0.981937        -0.089334
 C         2.327891        -0.526432        -1.044724
 O         2.020693        -1.249964        -2.238367
 C         2.544985         0.954647        -1.354072
 C         2.170588         1.078190         0.103858
 O         1.977326         2.369251         0.823983
 H        -0.692534         0.357549         0.119031
 H        -0.481644        -1.368586        -0.125180
 H        -0.293314        -0.699793         1.400174
 H         2.948172         0.309827         2.017620
 H         4.358428        -0.670373        -0.598582
 H         3.483450        -2.104642         0.093349
 H         1.788728        -2.192432        -2.020398
 H         3.506152         1.402496        -1.600821
 H         1.772298         1.508606        -2.030095
 H         1.283293         2.861258         0.376126
