19
Iteration:   942charge 0 multiplicity 1
 C        -0.016492        -0.616904         0.487202
 C         1.325859        -0.041791        -0.077145
 C         2.495108        -0.059415         0.881620
 C         3.370957        -1.065820        -0.113098
 C         2.443931        -0.482119        -1.162856
 O         2.073697        -1.315567        -2.265456
 C         2.723564         1.108670        -1.375287
 C         2.062884         1.194300         0.086538
 O         1.778034         2.347416         0.925079
 H        -0.190883         0.080950         1.303725
 H        -0.890874        -0.395305        -0.215303
 H        -0.016548        -1.643493         0.724400
 H         2.409838        -0.171273         1.996461
 H         4.445778        -0.906943        -0.282979
 H         3.322150        -2.214807         0.001875
 H         1.967652        -2.141079        -1.850349
 H         3.810326         1.380101        -1.409344
 H         2.007017         1.445545        -2.168601
 H         2.295687         2.196329         1.723327
