19
Iteration:  1642charge 0 multiplicity 1
 C         0.002969        -0.569188         0.643935
 C         1.444477        -0.274397         0.175645
 C         2.846035         0.026758         0.864290
 C         3.485699        -1.002818        -0.144248
 C         2.406593        -0.555547        -1.185723
 O         1.960560        -1.293718        -2.283575
 C         2.532599         1.171764        -1.348894
 C         2.051925         1.149635         0.016086
 O         1.654973         2.282502         0.733626
 H        -0.076235        -0.043167         1.563319
 H        -0.738190        -0.016821         0.152680
 H        -0.354876        -1.589938         0.993245
 H         2.931570         0.123912         1.955347
 H         4.492101        -0.697908        -0.382537
 H         3.354243        -2.028362         0.354518
 H         2.633329        -1.197120        -2.928015
 H         3.534243         1.482319        -1.415934
 H         1.744326         1.373964        -2.098625
 H         1.045623         1.987707         1.451095
