19
Iteration:  3030
 C         0.182023        -0.900131         0.538911
 C         1.485655        -0.175980         0.105922
 C         2.828471        -0.014969         0.812020
 C         3.521010        -0.936904        -0.235497
 C         2.334808        -0.425578        -1.134122
 O         1.766958        -1.034411        -2.331577
 C         2.533021         1.102586        -1.314396
 C         2.072445         1.174483         0.142693
 O         1.641514         2.222207         0.884133
 H        -0.683101        -0.229981         0.761987
 H        -0.078666        -1.623554        -0.268924
 H         0.270823        -1.428615         1.503836
 H         3.140031        -0.072179         1.860610
 H         4.574653        -0.889401        -0.463175
 H         3.502261        -1.947672         0.060315
 H         1.169947        -1.793518        -2.051183
 H         3.542831         1.581818        -1.362958
 H         1.702624         1.472832        -1.989130
 H         2.481558         2.627939         1.224470
