19
Iteration:  3375charge 0 multiplicity 1
 C         0.033939        -0.724915         0.614918
 C         1.409145        -0.231847         0.072684
 C         2.665315        -0.167946         0.744816
 C         3.549229        -0.739602        -0.376572
 C         2.297189        -0.392784        -1.274086
 O         1.868846        -1.297436        -2.354475
 C         2.440186         1.184466        -1.312015
 C         2.117597         1.117816         0.226244
 O         1.956092         2.229739         1.151926
 H         0.082972        -0.779715         1.653361
 H        -0.858228        -0.355849         0.152024
 H        -0.204518        -1.768815         0.443358
 H         2.723958        -0.344579         1.869106
 H         4.491683        -0.155328        -0.702327
 H         3.682908        -1.853026        -0.478622
 H         2.154086        -0.762254        -3.153460
 H         3.314049         1.491580        -1.783843
 H         1.666879         1.698937        -1.785637
 H         1.259110         1.940703         1.790679
