19
Iteration:  4865
 C        -0.071281        -0.552928         0.432227
 C         1.336211        -0.134313         0.164849
 C         2.621302        -0.090604         0.874271
 C         3.409985        -1.014988        -0.093846
 C         2.288336        -0.510488        -1.095240
 O         2.029779        -1.364591        -2.229312
 C         2.579932         0.995354        -1.315221
 C         2.211120         1.171783         0.136399
 O         1.989199         2.392810         0.717303
 H        -0.896523         0.058344        -0.053052
 H        -0.350216        -1.612037         0.157648
 H        -0.417218        -0.312986         1.481640
 H         2.801992        -0.014434         1.983806
 H         4.445141        -0.908390        -0.233272
 H         3.189762        -2.037647         0.273023
 H         1.638275        -0.786311        -2.903262
 H         3.568681         1.310149        -1.547635
 H         1.848834         1.579260        -1.926715
 H         1.036566         2.474438         0.829408
