19
Iteration:  3688
 C        -0.004804        -0.613709         0.567640
 C         1.379903        -0.257316         0.132657
 C         2.785425        -0.126092         0.802403
 C         3.386554        -0.917384        -0.330692
 C         2.272598        -0.461836        -1.244207
 O         1.979048        -1.098954        -2.461358
 C         2.408707         1.130925        -1.317041
 C         2.131585         1.108431         0.255731
 O         1.914045         2.161440         1.141081
 H        -0.416879         0.019349         1.404753
 H        -0.550722        -0.337628        -0.333021
 H        -0.204847        -1.653467         0.734366
 H         3.013207        -0.077189         1.898397
 H         4.462557        -0.741205        -0.717241
 H         3.311468        -2.051537        -0.190750
 H         2.173349        -2.041404        -2.222173
 H         3.398458         1.451088        -1.664570
 H         1.583345         1.699474        -1.797844
 H         2.279906         2.948453         0.729733
