19
Iteration:  3389
 C         0.026834        -0.798872         0.581190
 C         1.298204        -0.168077         0.119503
 C         2.762640        -0.208112         0.757980
 C         3.493472        -0.765312        -0.434594
 C         2.262047        -0.341996        -1.273157
 O         1.940541        -1.275517        -2.308827
 C         2.411550         1.223341        -1.247944
 C         2.066986         1.087128         0.221538
 O         2.020423         2.174768         1.081953
 H        -0.295662        -0.370681         1.527910
 H        -0.786291        -0.410523        -0.040523
 H         0.264860        -1.872523         0.489543
 H         3.176216        -0.002628         1.768354
 H         4.474502        -0.308324        -0.607409
 H         3.590514        -1.881645        -0.326667
 H         1.733685        -0.895381        -3.173991
 H         3.425721         1.631210        -1.368887
 H         1.647621         1.752437        -1.825001
 H         1.196957         2.197975         1.607491
