19
Iteration:  1429
 C        -0.130608        -0.393789         0.572097
 C         1.371689        -0.237525         0.188957
 C         2.740751        -0.111828         0.786699
 C         3.528227        -0.841157        -0.246915
 C         2.243772        -0.508249        -1.144966
 O         2.199149        -1.407334        -2.256787
 C         2.573555         0.991979        -1.339307
 C         2.129950         1.132942         0.140747
 O         1.677453         2.279334         0.781284
 H        -0.315534         0.107383         1.555364
 H        -0.706955         0.035706        -0.248005
 H        -0.477450        -1.429297         0.698007
 H         2.806682        -0.001519         1.886568
 H         4.496538        -0.424856        -0.689100
 H         3.621421        -1.837453         0.027343
 H         1.326760        -1.724890        -2.287223
 H         3.550297         1.453213        -1.537951
 H         1.885102         1.655955        -1.885067
 H         1.964510         2.387321         1.703439
