19
Iteration:  1542charge 0 multiplicity 1
 C         0.084512        -0.813632         0.398857
 C         1.366810        -0.091988         0.139221
 C         2.613538        -0.030894         0.893994
 C         3.452874        -0.863564        -0.079518
 C         2.332666        -0.478254        -1.134468
 O         1.965558        -1.214091        -2.214302
 C         2.462950         0.932208        -1.389584
 C         2.220819         1.181232         0.093837
 O         1.820606         2.388921         0.761818
 H        -0.364379        -0.497593         1.290376
 H        -0.578493        -0.711264        -0.414033
 H         0.133205        -1.899146         0.717507
 H         2.668291        -0.147101         1.984714
 H         4.443526        -0.550988        -0.424781
 H         3.550063        -1.961591         0.035169
 H         1.423949        -1.930007        -1.755656
 H         3.359997         1.413925        -1.726882
 H         1.641450         1.480351        -1.926699
 H         2.393775         2.568678         1.495031
