19
Iteration:  2090
 C         0.022140        -0.642555         0.562747
 C         1.335972        -0.192096         0.060797
 C         2.941322        -0.002006         0.786155
 C         3.550332        -0.832955        -0.277601
 C         2.346859        -0.472481        -1.109205
 O         2.017864        -1.317028        -2.112877
 C         2.520846         1.103715        -1.399326
 C         2.085011         1.128368         0.161481
 O         1.561298         2.194658         0.824769
 H        -0.365003         0.169962         1.220760
 H        -0.708656        -0.802437        -0.223143
 H         0.208395        -1.573044         1.085810
 H         3.253857         0.225379         1.761938
 H         4.357589        -0.492209        -0.940901
 H         3.574403        -1.952941        -0.034900
 H         1.075004        -1.336645        -2.487343
 H         3.536881         1.415402        -1.649134
 H         1.712193         1.528219        -2.030768
 H         2.115298         2.263946         1.599183
