19
Iteration:  2622
 C        -0.037177        -0.897059         0.437693
 C         1.304580        -0.210889         0.109171
 C         2.755247        -0.064779         0.876914
 C         3.487085        -0.792319        -0.277940
 C         2.297785        -0.447263        -1.179130
 O         2.132715        -1.477318        -2.169069
 C         2.385122         1.189495        -1.330664
 C         2.119334         1.156323         0.192093
 O         1.857342         2.480705         0.914829
 H        -0.890717        -0.109561         0.350794
 H        -0.094004        -1.585488        -0.369054
 H        -0.218311        -1.122441         1.481252
 H         2.839816        -0.128824         1.955903
 H         4.463656        -0.438572        -0.694242
 H         3.670323        -1.872019        -0.320122
 H         1.135329        -1.512877        -2.380232
 H         3.324789         1.457107        -1.750882
 H         1.403599         1.420125        -1.716456
 H         2.448113         3.206641         0.693492
