19
Iteration:  1628charge 0 multiplicity 1
 C         0.068794        -0.514167         0.675302
 C         1.371293        -0.210516         0.058006
 C         2.702049        -0.045504         0.816409
 C         3.551647        -0.876151        -0.075573
 C         2.373638        -0.524280        -1.177967
 O         1.968137        -1.357031        -2.285419
 C         2.539370         1.042891        -1.356287
 C         2.052237         1.091412         0.114110
 O         1.689274         2.305356         0.768408
 H        -0.063230        -0.059498         1.737035
 H        -0.750205        -0.256403        -0.011956
 H         0.073704        -1.635185         0.600903
 H         2.980996         0.167272         1.869649
 H         4.642593        -0.692217        -0.374072
 H         3.446082        -1.943769         0.127244
 H         2.402765        -1.068351        -3.149277
 H         3.505187         1.576026        -1.612933
 H         1.811475         1.624850        -2.046327
 H         1.177906         2.115801         1.589853
