19
Iteration:  3528charge 0 multiplicity 1
 C         0.004216        -0.630588         0.656280
 C         1.430583        -0.236763         0.202102
 C         2.783080        -0.217484         0.726068
 C         3.521836        -0.937762        -0.393359
 C         2.273322        -0.400264        -1.227456
 O         1.986036        -1.117978        -2.342991
 C         2.255164         1.162383        -1.242993
 C         2.099139         1.097972         0.175958
 O         1.935243         2.165111         0.967729
 H        -0.433745        -0.280873         1.577129
 H        -0.672599        -0.144779        -0.101781
 H        -0.141782        -1.736723         0.514699
 H         3.153402        -0.072257         1.773395
 H         4.438571        -0.382112        -0.563398
 H         3.650562        -2.021728        -0.206905
 H         2.398202        -0.550414        -3.027704
 H         3.212438         1.572308        -1.755238
 H         1.259343         1.491331        -1.692807
 H         1.650204         1.889077         1.838293
