19
Iteration:  3958charge 0 multiplicity 1
 C        -0.101152        -0.344153         0.516382
 C         1.390099        -0.214512         0.087932
 C         2.758339        -0.212354         0.884799
 C         3.457919        -1.032468        -0.284119
 C         2.269049        -0.446942        -1.179108
 O         2.058524        -1.177966        -2.326906
 C         2.470742         1.087522        -1.286126
 C         2.249231         1.056917         0.184063
 O         1.785252         2.137852         0.965748
 H        -0.212721        -1.075299         1.356752
 H        -0.458659         0.710783         0.557816
 H        -0.637072        -0.885252        -0.305740
 H         2.906978        -0.369640         1.933234
 H         4.407229        -0.698516        -0.503995
 H         3.294364        -2.062775        -0.069795
 H         1.365300        -0.694593        -2.809947
 H         3.380345         1.485644        -1.802641
 H         1.549148         1.464164        -1.717711
 H         2.637901         2.600776         1.169421
