19
Iteration:  2094charge 0 multiplicity 1
 C         0.009927        -0.672793         0.580632
 C         1.334338        -0.170482         0.044713
 C         2.991301         0.001136         0.794248
 C         3.487132        -0.840709        -0.306909
 C         2.347406        -0.419460        -1.113552
 O         2.019766        -1.352893        -2.110682
 C         2.511591         1.123207        -1.369195
 C         2.112253         1.133838         0.177642
 O         1.566977         2.192785         0.802060
 H        -0.291709         0.162340         1.165603
 H        -0.724359        -0.814287        -0.280897
 H         0.064242        -1.754605         1.032916
 H         3.337411         0.145144         1.874629
 H         4.423314        -0.610970        -0.897167
 H         3.508257        -1.903437         0.038973
 H         1.171835        -1.360556        -2.470843
 H         3.493408         1.535400        -1.692843
 H         1.780781         1.473311        -2.109181
 H         1.978106         2.400786         1.697456
