19
Iteration:  3195
 C         0.129358        -0.771523         0.544669
 C         1.478310        -0.290840         0.133948
 C         2.805633        -0.112466         0.815183
 C         3.560877        -0.841567        -0.333709
 C         2.355448        -0.415363        -1.136560
 O         1.739540        -1.100206        -2.312563
 C         2.466063         1.092008        -1.324565
 C         2.084441         1.146764         0.219918
 O         1.708821         2.149112         1.020720
 H        -0.301710        -1.462279        -0.204428
 H         0.163395        -1.256324         1.508411
 H        -0.494361         0.088500         0.529043
 H         2.851636         0.141907         1.903515
 H         4.697613        -0.573373        -0.527662
 H         3.730631        -1.912756        -0.261590
 H         2.211275        -0.667218        -3.066405
 H         3.421503         1.309859        -1.686744
 H         1.619847         1.500617        -1.955237
 H         2.011086         2.929931         0.527060
