19
Iteration:  3301
 C         0.198519        -0.732774         0.627684
 C         1.527249        -0.200524         0.146248
 C         2.827647        -0.172065         0.847453
 C         3.554522        -0.931314        -0.464739
 C         2.286299        -0.441627        -1.195337
 O         1.797577        -0.966282        -2.375925
 C         2.502839         1.100402        -1.227355
 C         2.148748         1.093163         0.234258
 O         1.629698         2.222408         0.879373
 H         0.180192        -1.521425         1.451053
 H        -0.549348         0.120837         0.860951
 H        -0.376208        -1.216485        -0.241947
 H         2.709597        -0.356882         1.950216
 H         4.444679        -0.545601        -0.905838
 H         3.562775        -2.017330        -0.225748
 H         1.561180        -1.886166        -2.122992
 H         3.523607         1.664323        -1.331013
 H         1.798019         1.701275        -1.799222
 H         1.416748         1.960380         1.792148
