19
Iteration:  1276charge 0 multiplicity 1
 C        -0.114179        -0.568356         0.497226
 C         1.366861        -0.108356         0.101496
 C         2.650409        -0.033371         0.817304
 C         3.397716        -0.927187        -0.184885
 C         2.271042        -0.580968        -1.118282
 O         2.097282        -1.379206        -2.235708
 C         2.644239         1.000473        -1.369696
 C         2.092944         1.215765         0.061004
 O         1.880318         2.334523         0.951577
 H        -0.358669        -0.089777         1.424805
 H        -0.864963        -0.196061        -0.088464
 H        -0.082351        -1.691501         0.659576
 H         2.656347        -0.064600         1.892915
 H         4.473721        -0.635425        -0.394436
 H         3.265004        -1.930310         0.075855
 H         2.736309        -1.144034        -2.943480
 H         3.621400         1.434872        -1.469079
 H         1.940355         1.297445        -2.163310
 H         0.928226         2.328003         1.016170
