19
Iteration:  4037charge 0 multiplicity 1
 C         0.031956        -0.650168         0.359004
 C         1.327760        -0.090422         0.129576
 C         2.653018        -0.141911         0.883791
 C         3.325174        -1.084592        -0.163697
 C         2.331894        -0.423384        -1.152527
 O         1.745277        -1.164565        -2.312806
 C         2.692179         1.119275        -1.260526
 C         2.203379         1.156667         0.170536
 O         1.899384         2.299374         0.897232
 H         0.287460        -1.748815         0.159422
 H        -0.038164        -0.654231         1.512964
 H        -0.883559        -0.302904        -0.143534
 H         2.556019        -0.467421         1.986388
 H         4.357865        -0.906040        -0.410455
 H         3.232151        -2.150150         0.178044
 H         2.456583        -1.499711        -2.883915
 H         3.729912         1.358408        -1.442573
 H         2.112012         1.541026        -2.108107
 H         2.735557         2.630310         1.318467
