19
Iteration:  4950charge 0 multiplicity 1
 C        -0.139816        -0.518318         0.446601
 C         1.368053        -0.206009         0.182342
 C         2.687388        -0.119421         0.952973
 C         3.431393        -1.096043        -0.106015
 C         2.328042        -0.488853        -1.105411
 O         2.003364        -1.277823        -2.171548
 C         2.628134         1.017453        -1.372013
 C         2.182114         1.160142         0.122598
 O         1.884790         2.360604         0.709933
 H        -0.733648         0.289251         0.013732
 H        -0.180490        -1.479454        -0.022282
 H        -0.372643        -0.674488         1.453223
 H         2.736080        -0.107632         2.096836
 H         4.445551        -0.647331        -0.274994
 H         3.336120        -2.248679         0.109499
 H         1.272388        -0.739560        -2.561454
 H         3.609524         1.254210        -1.806336
 H         1.837582         1.607878        -1.964628
 H         1.684211         2.998852         0.007913
