19
Iteration:  3074
 C         0.064210        -0.840647         0.636405
 C         1.334528        -0.199168         0.238745
 C         2.702928        -0.149687         0.790625
 C         3.463016        -0.747014        -0.349493
 C         2.325217        -0.420509        -1.266191
 O         2.101921        -1.240233        -2.386856
 C         2.261184         1.197745        -1.261118
 C         2.050780         1.115663         0.187492
 O         1.931258         2.309909         0.900191
 H        -0.758107        -0.100832         0.576030
 H        -0.139817        -1.639513        -0.077008
 H         0.006650        -1.366713         1.589761
 H         2.771588        -0.202645         1.861233
 H         4.466511        -0.363812        -0.614481
 H         3.776422        -1.748863        -0.264345
 H         1.528418        -1.998644        -2.057651
 H         3.176980         1.680032        -1.670979
 H         1.306353         1.479503        -1.817733
 H         2.575201         2.250764         1.647503
