19
Iteration:  3320charge 0 multiplicity 1
 C         0.094885        -0.704952         0.583222
 C         1.551416        -0.258451         0.199414
 C         2.995989        -0.205200         0.776749
 C         3.468232        -0.969159        -0.398448
 C         2.290311        -0.381592        -1.198827
 O         1.789619        -0.962014        -2.372789
 C         2.487076         1.137885        -1.219542
 C         2.175939         1.055637         0.319598
 O         1.570756         2.251070         0.852438
 H         0.004414        -1.137826         1.526822
 H        -0.543118         0.136662         0.888968
 H        -0.256126        -1.337548        -0.225139
 H         3.581759        -0.343391         1.676621
 H         4.466780        -0.682434        -0.880341
 H         3.221784        -2.048257        -0.165794
 H         2.316115        -1.809355        -2.526767
 H         3.445407         1.446837        -1.584738
 H         1.706403         1.551728        -1.766953
 H         1.174960         2.093471         1.743139
