19
Iteration:  1336
 C         0.044344        -0.821985         0.395270
 C         1.320670        -0.116719         0.140180
 C         2.784580        -0.117017         0.949500
 C         3.422750        -1.003766        -0.178026
 C         2.300500        -0.483938        -1.076374
 O         1.837432        -1.138980        -2.213983
 C         2.744637         0.989810        -1.230836
 C         2.113787         1.143183         0.162653
 O         1.727785         2.493155         0.682224
 H        -0.371210        -0.240875         1.244975
 H        -0.619032        -0.827957        -0.525059
 H         0.074953        -1.802205         0.724276
 H         2.769608        -0.235884         2.015977
 H         4.476759        -0.913626        -0.229481
 H         3.227657        -2.127202         0.095381
 H         2.424747        -1.985324        -2.265524
 H         3.719347         1.393483        -1.516045
 H         1.993971         1.534894        -1.846489
 H         2.133082         3.049015        -0.025125
