19
Iteration:  4422charge 0 multiplicity 1
 C        -0.044967        -0.513429         0.399727
 C         1.321702        -0.071433         0.138185
 C         2.614239        -0.125637         0.804562
 C         3.377391        -1.011718        -0.093140
 C         2.262446        -0.625323        -1.103459
 O         2.028486        -1.337494        -2.219170
 C         2.615733         1.105116        -1.341919
 C         2.183891         1.189332         0.180997
 O         1.990722         2.325450         0.855041
 H        -0.306953        -1.377331        -0.253065
 H        -0.399184        -0.786454         1.370530
 H        -0.703573         0.286864         0.033782
 H         2.667877        -0.301730         1.879603
 H         4.360463        -0.552746        -0.367893
 H         3.494472        -2.142356         0.147018
 H         1.076656        -1.576261        -2.343188
 H         3.725616         1.405240        -1.510224
 H         1.763594         1.430756        -2.065393
 H         1.720924         3.013365         0.234951
