19
Iteration:  1865charge 0 multiplicity 1
 C         0.081416        -0.617647         0.615865
 C         1.426923        -0.154869         0.191052
 C         2.842604        -0.090643         0.896514
 C         3.489942        -0.804586        -0.285976
 C         2.310893        -0.540373        -1.169224
 O         2.040533        -1.452662        -2.280947
 C         2.402434         1.054241        -1.355028
 C         2.066689         1.134750         0.138463
 O         1.591364         2.340166         0.893643
 H        -0.243198         0.029056         1.444527
 H        -0.662456        -0.604814        -0.254433
 H         0.022721        -1.675586         0.941861
 H         2.993467         0.046025         1.946510
 H         4.316491        -0.273523        -0.800131
 H         3.787898        -1.859737        -0.202927
 H         2.306659        -0.946701        -3.035860
 H         3.465840         1.220190        -1.689483
 H         1.783957         1.685247        -1.982657
 H         2.315241         2.968976         0.569956
