19
Iteration:  3506charge 0 multiplicity 1
 C         0.121717        -0.665145         0.589605
 C         1.479126        -0.265650         0.030801
 C         2.874168        -0.138633         0.869729
 C         3.447549        -0.890544        -0.342877
 C         2.270592        -0.412579        -1.293505
 O         1.817508        -1.091890        -2.388262
 C         2.377781         1.150433        -1.284927
 C         2.141600         1.110187         0.252152
 O         1.796390         2.208013         1.044753
 H        -0.106694         0.073487         1.339844
 H        -0.747283        -0.538576        -0.102792
 H         0.083996        -1.687584         1.020843
 H         3.240955        -0.422324         1.890393
 H         4.486090        -0.774648        -0.686826
 H         3.127653        -1.957475        -0.166948
 H         2.628254        -1.474903        -2.824188
 H         3.327098         1.614827        -1.769954
 H         1.484977         1.466340        -1.882243
 H         1.755383         1.766906         1.934638
