19
Iteration:  3066
 C         0.100147        -0.861272         0.592995
 C         1.353176        -0.177917         0.241209
 C         2.751692        -0.186893         0.827228
 C         3.464038        -0.773778        -0.307027
 C         2.276674        -0.428377        -1.258161
 O         2.074767        -1.235029        -2.366606
 C         2.292836         1.153079        -1.313470
 C         2.058492         1.162962         0.180631
 O         1.893214         2.332192         0.898001
 H        -0.766544        -0.149299         0.568249
 H        -0.231677        -1.717012        -0.138098
 H         0.309987        -1.416626         1.559865
 H         3.013626        -0.384548         1.871754
 H         4.337963        -0.253888        -0.483503
 H         3.433688        -1.884909        -0.436225
 H         1.448476        -1.990404        -2.242534
 H         3.160513         1.877047        -1.530727
 H         1.442927         1.786862        -1.806950
 H         2.461831         2.502940         1.679432
