19
Iteration:  4403charge 0 multiplicity 1
 C        -0.103698        -0.436225         0.408954
 C         1.365800        -0.201442         0.054373
 C         2.662092        -0.124812         0.941408
 C         3.454391        -0.996523        -0.138170
 C         2.363415        -0.493054        -1.160896
 O         1.961402        -1.314557        -2.260746
 C         2.697123         0.958544        -1.294817
 C         2.128792         1.143447         0.135037
 O         1.879528         2.353887         0.881021
 H        -0.329351        -1.468116         0.255939
 H        -0.117124        -0.317920         1.480297
 H        -0.829317         0.295346         0.038268
 H         2.760021        -0.021432         1.946878
 H         4.438798        -0.811717        -0.494051
 H         3.217587        -2.073924         0.100183
 H         0.975746        -1.333550        -2.208780
 H         3.748415         1.070456        -1.479111
 H         1.899127         1.411339        -2.000639
 H         1.636034         2.988928         0.200174
