19
Iteration:   428charge 0 multiplicity 1
 C        -0.134658        -0.462192         0.059983
 C         1.313632        -0.130953         0.174683
 C         2.663607        -0.226324         1.084157
 C         3.394019        -1.065674         0.000973
 C         2.421758        -0.503711        -1.080756
 O         1.940663        -1.238607        -2.201249
 C         2.732914         1.000562        -1.235587
 C         2.246493         1.070546         0.256507
 O         1.780412         2.372467         0.703654
 H        -0.709042        -0.035725         0.896877
 H        -0.491517        -0.109426        -0.827680
 H        -0.322972        -1.602326         0.006189
 H         2.463714        -0.133951         2.145045
 H         4.442739        -0.662458        -0.104417
 H         3.407080        -2.122894         0.165871
 H         2.508140        -0.955842        -2.877423
 H         3.696028         1.428541        -1.571363
 H         1.881022         1.533833        -1.770978
 H         1.594903         2.897254        -0.094452
