19
Iteration:   667charge 0 multiplicity 1
 C        -0.102480        -0.661353         0.281711
 C         1.262260        -0.200630         0.121896
 C         2.509538        -0.221900         0.971377
 C         3.323092        -0.978388        -0.058559
 C         2.265883        -0.528028        -1.081684
 O         2.161317        -1.100431        -2.302529
 C         2.624282         0.976985        -1.198548
 C         2.133623         1.130593         0.221965
 O         2.042307         2.502586         0.648911
 H        -0.528645        -0.352189         1.204848
 H        -0.576538        -0.286736        -0.667679
 H         0.083608        -1.717796         0.278293
 H         2.484550        -0.372317         2.052660
 H         4.376830        -0.690014        -0.312983
 H         3.276289        -2.079911         0.181758
 H         2.243970        -2.001647        -2.053228
 H         3.660831         1.185888        -1.501934
 H         1.915986         1.495753        -1.891169
 H         1.280197         2.763099         1.175196
