19
Iteration:  3095
 C        -0.051838        -0.789734         0.623562
 C         1.336485        -0.351194         0.099786
 C         2.797971        -0.048802         0.773167
 C         3.540172        -0.704312        -0.294477
 C         2.267772        -0.474037        -1.189237
 O         2.073368        -1.127299        -2.349863
 C         2.249588         1.077244        -1.372074
 C         2.033288         1.124118         0.148871
 O         1.931477         2.262648         0.999202
 H        -0.745549         0.048214         0.498037
 H        -0.479603        -1.717993         0.377389
 H         0.145080        -0.934635         1.664918
 H         3.037634        -0.054991         1.822352
 H         4.619664        -0.351604        -0.637839
 H         3.687895        -1.789121        -0.286840
 H         2.125752        -2.066229        -2.233774
 H         3.140039         1.573495        -1.755395
 H         1.345153         1.450866        -1.883981
 H         2.622595         2.255687         1.675338
