19
Iteration:  3433charge 0 multiplicity 1
 C         0.142418        -0.817903         0.453178
 C         1.459553        -0.185275         0.197392
 C         2.892117        -0.171709         0.823188
 C         3.464092        -0.993655        -0.232692
 C         2.307248        -0.460110        -1.207685
 O         1.810861        -1.001675        -2.524957
 C         2.371777         1.149356        -1.271037
 C         2.130968         1.127665         0.288159
 O         1.860726         2.232346         1.075998
 H        -0.518702        -0.157652         1.018102
 H        -0.487632        -1.099789        -0.377995
 H         0.474655        -1.674634         1.064384
 H         3.022957        -0.348194         1.868111
 H         4.438863        -0.595515        -0.636401
 H         3.590678        -2.099209        -0.123448
 H         0.890990        -1.047703        -2.267819
 H         3.172209         1.730039        -1.678669
 H         1.418858         1.402510        -1.665626
 H         1.698825         2.994213         0.490923
