19
Iteration:  4683charge 0 multiplicity 1
 C         0.006262        -0.590192         0.444195
 C         1.391289        -0.075862         0.002464
 C         2.641437        -0.061203         0.847796
 C         3.372773        -1.041742        -0.075014
 C         2.357318        -0.476615        -1.121281
 O         1.816058        -1.274885        -2.128787
 C         2.719093         0.975692        -1.345808
 C         2.174997         1.186689         0.157635
 O         1.886727         2.332191         0.807340
 H        -0.644259        -0.411317        -0.454998
 H        -0.062915        -1.712393         0.485301
 H        -0.319602        -0.157480         1.439847
 H         2.437584        -0.101720         1.872973
 H         4.484615        -1.048223        -0.369539
 H         3.018453        -2.019265         0.147698
 H         2.495336        -1.627254        -2.729733
 H         3.806424         1.374707        -1.372447
 H         2.056809         1.529122        -1.992894
 H         1.185248         2.831516         0.315705
