19
Iteration:  1229charge 0 multiplicity 1
 C        -0.063797        -0.373893         0.396818
 C         1.438611        -0.244197         0.108904
 C         2.655823        -0.186815         0.975339
 C         3.483166        -0.981549        -0.181370
 C         2.365456        -0.506849        -1.095883
 O         2.130519        -1.266741        -2.223614
 C         2.451592         0.971677        -1.336411
 C         2.194093         1.066088         0.230637
 O         1.738165         2.330131         0.683702
 H        -0.422314         0.224351         1.289127
 H        -0.528221         0.221436        -0.410313
 H        -0.307822        -1.391206         0.344808
 H         2.800217        -0.240146         2.073717
 H         4.381271        -0.427512        -0.412376
 H         3.615857        -1.978748         0.232742
 H         1.250008        -0.848898        -2.562584
 H         3.402118         1.308797        -1.826780
 H         1.627856         1.353920        -1.839669
 H         1.652456         2.392337         1.680223
