19
Iteration:   255charge 0 multiplicity 1
 C         0.016060        -0.609428         0.050986
 C         1.382578        -0.002571        -0.024442
 C         2.545198        -0.090259         0.886421
 C         3.247628        -1.099623         0.038572
 C         2.350523        -0.470482        -1.080989
 O         1.930953        -1.312657        -1.987187
 C         2.764127         1.051368        -1.276748
 C         2.280609         1.175932         0.135524
 O         1.783567         2.360267         0.767336
 H        -0.460739        -0.156494         0.986065
 H        -0.528513        -0.084425        -0.721327
 H         0.007193        -1.743233        -0.013348
 H         2.356711        -0.015677         1.964727
 H         4.364215        -1.251882        -0.018820
 H         2.760666        -1.998092         0.148808
 H         2.738913        -1.543816        -2.593810
 H         3.761766         1.334407        -1.518771
 H         2.138827         1.556101        -2.058653
 H         2.043333         2.259874         1.707173
