19
Iteration:  2901charge 0 multiplicity 1
 C         0.063631        -0.725537         0.725181
 C         1.348629        -0.285929         0.158106
 C         2.774521        -0.136638         0.777972
 C         3.509171        -0.799289        -0.353871
 C         2.300250        -0.387952        -1.269755
 O         2.057518        -1.227796        -2.364838
 C         2.407998         1.111029        -1.297811
 C         2.038230         1.146455         0.216822
 O         1.738914         2.290660         0.877752
 H         0.145912        -0.816553         1.812224
 H        -0.688910         0.102550         0.626961
 H        -0.276640        -1.628171         0.237198
 H         2.897169        -0.106858         1.895788
 H         4.505339        -0.378711        -0.707441
 H         3.450895        -1.937521        -0.308727
 H         2.145422        -2.103969        -2.029814
 H         3.365701         1.435223        -1.657630
 H         1.687463         1.489489        -2.050795
 H         2.369213         2.449980         1.597453
