19
Iteration:  3244
 C         0.102769        -0.868643         0.520627
 C         1.397580        -0.222632         0.184006
 C         2.777532        -0.193142         0.798542
 C         3.386186        -0.808175        -0.396337
 C         2.195078        -0.408389        -1.219472
 O         2.083978        -1.198767        -2.357610
 C         2.324160         1.128189        -1.307640
 C         2.083997         1.175570         0.226550
 O         1.888932         2.370551         1.046568
 H         0.198169        -1.973914         0.385272
 H        -0.091338        -0.773707         1.628165
 H        -0.710526        -0.501515        -0.182713
 H         3.049245        -0.260977         1.834886
 H         4.439223        -0.581889        -0.685379
 H         3.399464        -1.926970        -0.249167
 H         1.159305        -1.389684        -2.617832
 H         3.304453         1.645758        -1.591799
 H         1.454933         1.600335        -1.725659
 H         2.684151         2.361408         1.616810
