19
Iteration:  4108charge 0 multiplicity 1
 C        -0.095215        -0.400378         0.445963
 C         1.376340        -0.230307         0.054985
 C         2.715262        -0.208122         0.927320
 C         3.402639        -0.963976        -0.186412
 C         2.311985        -0.507319        -1.256924
 O         1.995356        -1.201565        -2.322449
 C         2.599809         1.022697        -1.245543
 C         2.204348         1.119451         0.185820
 O         1.823416         2.261769         0.916302
 H        -0.679376        -0.896773        -0.293025
 H        -0.289133        -0.924210         1.367753
 H        -0.393928         0.672276         0.524916
 H         2.630462        -0.464464         2.009263
 H         4.426078        -0.910964        -0.539647
 H         3.411534        -2.043242         0.074819
 H         1.094948        -1.481083        -2.486914
 H         3.568702         1.404910        -1.659299
 H         1.937172         1.670071        -1.797222
 H         2.673734         2.594752         1.304344
