19
Iteration:  2862charge 0 multiplicity 1
 C         0.232207        -0.822457         0.550594
 C         1.550408        -0.245824         0.207327
 C         2.821617        -0.084125         0.868013
 C         3.499465        -0.894480        -0.232520
 C         2.373883        -0.391683        -1.137544
 O         1.728035        -1.000138        -2.326671
 C         2.522216         0.999619        -1.354438
 C         2.146218         1.176086         0.138375
 O         1.535182         2.248192         0.852905
 H         0.186517        -1.259348         1.585670
 H        -0.575312        -0.082089         0.556376
 H        -0.153200        -1.494762        -0.283605
 H         3.012628        -0.006323         1.901311
 H         4.541208        -1.185151        -0.425510
 H         3.279640        -1.926903         0.024056
 H         1.965042        -1.975761        -2.245002
 H         3.594734         1.312082        -1.579493
 H         1.697833         1.381615        -1.959192
 H         2.132433         3.007004         0.638169
