19
Iteration:  2600charge 0 multiplicity 1
 C         0.064016        -0.785514         0.495496
 C         1.375402        -0.211530         0.112090
 C         2.704913        -0.001907         0.850578
 C         3.490209        -0.759680        -0.186573
 C         2.286486        -0.528793        -1.132547
 O         2.103756        -1.307520        -2.248184
 C         2.384177         1.082065        -1.379807
 C         1.993368         1.163540         0.085576
 O         1.828761         2.312829         0.878903
 H        -0.707247         0.054863         0.608527
 H        -0.215814        -1.449488        -0.303259
 H         0.124067        -1.201307         1.507500
 H         2.893050        -0.001064         1.900115
 H         4.566782        -0.563073        -0.382237
 H         3.558468        -1.820277         0.096717
 H         1.232530        -1.626704        -2.048355
 H         3.401432         1.433415        -1.421668
 H         1.611500         1.393577        -2.084555
 H         2.690882         2.769632         1.005048
