19
Iteration:  4490charge 0 multiplicity 1
 C        -0.048158        -0.594212         0.385798
 C         1.313076        -0.124401         0.111815
 C         2.686778        -0.091120         0.914691
 C         3.322003        -0.935612        -0.090032
 C         2.297872        -0.460876        -1.113155
 O         1.878531        -1.337816        -2.176239
 C         2.693474         0.976552        -1.331792
 C         2.226037         1.144676         0.149392
 O         1.992230         2.359673         0.790942
 H        -0.484871        -1.044738        -0.482014
 H        -0.142624        -1.320403         1.163529
 H        -0.795736         0.203823         0.501085
 H         2.733052        -0.281068         1.937040
 H         4.351918        -0.708364        -0.381261
 H         3.260006        -2.026437         0.369485
 H         2.102515        -0.873230        -3.010244
 H         3.785065         1.051394        -1.561176
 H         1.882908         1.503869        -2.058956
 H         1.149706         2.736534         0.486991
