19
Iteration:  1284charge 0 multiplicity 1
 C        -0.058705        -0.599839         0.510264
 C         1.321385        -0.126070         0.044263
 C         2.631470        -0.012541         0.838410
 C         3.384716        -0.933328        -0.145752
 C         2.303601        -0.501379        -1.153778
 O         2.033385        -1.339319        -2.236897
 C         2.597228         0.941644        -1.376321
 C         2.208117         1.203465         0.043971
 O         1.848133         2.318531         0.971314
 H        -0.201705        -0.180452         1.578495
 H        -0.902315        -0.413490        -0.263937
 H        -0.021179        -1.691071         0.651737
 H         2.720611         0.133061         1.901866
 H         4.469580        -0.741190        -0.268682
 H         3.247572        -1.923688         0.323250
 H         2.866411        -1.128451        -2.783730
 H         3.691065         1.253302        -1.490240
 H         2.104596         1.357954        -2.200774
 H         0.927141         2.573755         0.781848
