19
Iteration:  2378charge 0 multiplicity 1
 C         0.172524        -0.756180         0.666094
 C         1.447025        -0.196490         0.111560
 C         2.782205        -0.102848         0.865209
 C         3.435428        -0.952370        -0.199538
 C         2.310957        -0.464630        -1.203029
 O         2.041880        -1.328126        -2.304329
 C         2.564019         1.135802        -1.357360
 C         2.088988         1.163505         0.184642
 O         1.567643         2.453607         0.733346
 H        -0.196892        -0.155685         1.471271
 H        -0.679461        -0.864234        -0.081373
 H         0.180468        -1.811732         1.054386
 H         2.835676        -0.179433         1.983808
 H         4.493198        -0.945957        -0.514271
 H         3.077150        -1.944777         0.115834
 H         1.146529        -1.210806        -2.574112
 H         3.619465         1.434051        -1.670736
 H         1.963797         1.732497        -2.036955
 H         1.854022         2.593798         1.677174
