19
Iteration:   185
 C        -0.150196        -0.345890         0.249269
 C         1.279705        -0.145049         0.142756
 C         2.501488        -0.202921         1.007529
 C         3.326356        -1.066238         0.066158
 C         2.378913        -0.511931        -1.091765
 O         2.361811        -1.240588        -2.330067
 C         2.525094         1.015459        -1.278150
 C         2.203004         1.117764         0.175483
 O         1.828825         2.328662         0.649774
 H        -0.670640         0.397075         0.823651
 H        -0.674307        -0.160996        -0.726888
 H        -0.366633        -1.460868         0.762103
 H         2.790385        -0.108295         2.073956
 H         4.401863        -0.899590         0.000452
 H         3.081439        -2.207665         0.251098
 H         1.698920        -2.016394        -2.304122
 H         3.487623         1.367297        -1.739061
 H         1.678096         1.435067        -1.818609
 H         2.422521         2.485892         1.410241
