19
Iteration:  2660charge 0 multiplicity 1
 C         0.095966        -0.795432         0.420480
 C         1.495672        -0.252070         0.147696
 C         2.811844        -0.009311         0.928178
 C         3.540861        -0.819524        -0.205831
 C         2.356305        -0.494266        -1.104501
 O         1.871347        -1.276162        -2.143935
 C         2.403408         1.033338        -1.432909
 C         2.048606         1.189873         0.108295
 O         1.715069         2.290300         0.897972
 H        -0.576340        -0.255872        -0.261045
 H        -0.040852        -1.882681         0.161470
 H        -0.319656        -0.666938         1.474803
 H         2.926511         0.167090         1.993350
 H         4.576711        -0.542657        -0.422706
 H         3.359118        -1.902201        -0.058909
 H         1.912813        -0.776139        -2.951749
 H         3.365126         1.573145        -1.702295
 H         1.629401         1.445855        -2.112056
 H         2.405631         2.947845         0.601746
