19
Iteration:  1591
 C        -0.002154        -0.719193         0.521668
 C         1.360783        -0.176203         0.156047
 C         2.686303        -0.098181         0.870480
 C         3.482328        -0.866790        -0.198565
 C         2.285799        -0.451048        -1.148018
 O         2.099909        -1.400653        -2.189269
 C         2.477958         1.103944        -1.320133
 C         2.088094         1.153273         0.160018
 O         1.835505         2.404037         0.688181
 H        -0.448114        -0.426554         1.546258
 H        -0.771881        -0.501184        -0.317268
 H        -0.007136        -1.800639         0.674738
 H         3.026677        -0.002159         1.889055
 H         4.571202        -0.592310        -0.381060
 H         3.386537        -1.977358        -0.077543
 H         1.496602        -0.996801        -2.822633
 H         3.522166         1.424770        -1.653977
 H         1.671731         1.549851        -1.905927
 H         1.702176         2.490040         1.674704
