19
Iteration:  1880
 C         0.051583        -0.670047         0.582882
 C         1.430578        -0.361588         0.207452
 C         2.731218        -0.017818         0.812400
 C         3.599622        -0.737774        -0.267740
 C         2.320541        -0.509443        -1.148954
 O         1.993930        -1.411797        -2.234134
 C         2.422538         1.041888        -1.356011
 C         2.029350         1.194113         0.129919
 O         1.725873         2.310919         0.883288
 H        -0.383486         0.167913         1.303854
 H        -0.619786        -0.508918        -0.331549
 H        -0.175602        -1.698533         0.894841
 H         2.992262        -0.068277         1.882928
 H         4.594318        -0.218776        -0.470141
 H         3.637360        -1.755823         0.083474
 H         2.003958        -1.007882        -3.107659
 H         3.320475         1.627351        -1.662526
 H         1.543860         1.244762        -2.021652
 H         2.200567         3.117928         0.641670
