19
Iteration:  2052charge 0 multiplicity 1
 C         0.067783        -0.590867         0.585475
 C         1.461203        -0.266459         0.093217
 C         2.780419        -0.033642         0.922718
 C         3.568724        -0.801185        -0.164189
 C         2.317990        -0.499277        -1.209623
 O         2.037548        -1.374324        -2.307643
 C         2.375269         1.044616        -1.416711
 C         2.114415         1.072667         0.162522
 O         1.620623         2.294069         0.887625
 H        -0.259529         0.212325         1.247097
 H        -0.742580        -0.857076        -0.112029
 H         0.158132        -1.537112         1.194221
 H         3.089549        -0.029070         2.016902
 H         4.596517        -0.423020        -0.396172
 H         3.683116        -1.845349         0.039658
 H         1.413064        -0.800457        -2.823378
 H         3.177134         1.538744        -2.010081
 H         1.437304         1.519746        -1.733538
 H         2.343460         2.954273         0.728176
