19
Iteration:    12charge 0 multiplicity 1
 C        -0.251263        -0.387048         0.180947
 C         1.260425        -0.054061        -0.048202
 C         2.481357        -0.145278         0.944970
 C         3.373562        -1.004818        -0.004903
 C         2.453598        -0.589541        -1.061695
 O         2.155709        -1.354813        -2.150155
 C         2.805906         1.083283        -1.234289
 C         2.173492         1.122681         0.115899
 O         1.825732         2.313665         0.764287
 H        -0.859020         0.011641         1.023573
 H        -0.750525        -0.283519        -0.760614
 H        -0.195596        -1.463897         0.320396
 H         2.326921        -0.208206         2.013947
 H         4.435318        -0.779079        -0.198960
 H         3.237562        -2.083064         0.153151
 H         1.646521        -2.098826        -1.916375
 H         3.824798         1.451552        -1.348291
 H         2.106608         1.662031        -1.841993
 H         2.624306         2.719570         1.125320
