19
Iteration:  4776charge 0 multiplicity 1
 C        -0.087981        -0.382765         0.450326
 C         1.319979        -0.130829         0.015534
 C         2.698793        -0.100455         0.919483
 C         3.388556        -0.941520        -0.182114
 C         2.280226        -0.583982        -1.153961
 O         2.079635        -1.399328        -2.204884
 C         2.660656         1.057414        -1.323484
 C         2.185635         1.086800         0.084372
 O         1.854987         2.308389         0.941144
 H        -0.788628        -0.964126        -0.249540
 H        -0.049954        -1.012327         1.394314
 H        -0.405840         0.656259         0.736191
 H         3.024881        -0.071495         1.933012
 H         4.378236        -0.821269        -0.418475
 H         3.228344        -2.061342         0.074601
 H         1.181388        -1.401720        -2.603916
 H         3.576536         1.406769        -1.601989
 H         1.816129         1.317226        -1.998498
 H         1.406009         2.915504         0.349829
