19
Iteration:    11charge 0 multiplicity 1
 C        -0.247557        -0.373048         0.191940
 C         1.268594        -0.060809        -0.043704
 C         2.485435        -0.142177         0.951348
 C         3.364160        -1.003586        -0.004711
 C         2.455313        -0.599926        -1.056481
 O         2.159061        -1.335388        -2.161731
 C         2.800959         1.067392        -1.238072
 C         2.169709         1.123999         0.114121
 O         1.816661         2.311886         0.758619
 H        -0.783234        -0.000700         1.003651
 H        -0.693543        -0.287490        -0.740727
 H        -0.207144        -1.473080         0.316633
 H         2.335522        -0.193945         2.017120
 H         4.392478        -0.811352        -0.177281
 H         3.204322        -2.115411         0.162377
 H         1.701296        -2.114495        -1.931967
 H         3.819179         1.426316        -1.362248
 H         2.132536         1.648180        -1.833315
 H         2.591764         2.729410         1.130889
