19
Iteration:   938charge 0 multiplicity 1
 C        -0.011475        -0.623725         0.487659
 C         1.322670        -0.050988        -0.074313
 C         2.522121        -0.057885         0.860216
 C         3.324279        -1.081017        -0.134649
 C         2.431746        -0.467392        -1.162588
 O         2.084916        -1.280848        -2.236724
 C         2.736996         1.082098        -1.368179
 C         2.096742         1.196507         0.115943
 O         1.764153         2.351628         0.897627
 H        -0.180457        -0.024754         1.386381
 H        -0.867195        -0.452052        -0.239190
 H         0.106378        -1.728534         0.727856
 H         2.205117        -0.080324         1.933508
 H         4.383503        -0.919163        -0.264915
 H         3.351039        -2.204977        -0.029189
 H         1.924753        -2.181043        -1.776883
 H         3.803092         1.298001        -1.531481
 H         2.044012         1.553329        -2.122205
 H         2.226368         2.220146         1.753373
