19
Iteration:  2772charge 0 multiplicity 1
 C        -0.021771        -0.654611         0.609904
 C         1.382385        -0.251003         0.204143
 C         2.800679        -0.003051         0.838791
 C         3.496877        -0.827698        -0.267108
 C         2.323696        -0.459693        -1.167365
 O         2.145238        -1.163716        -2.346252
 C         2.249291         1.056390        -1.387580
 C         2.027511         1.060257         0.094221
 O         1.822885         2.226476         0.903995
 H        -0.185875        -1.729890         0.483028
 H        -0.248198        -0.346482         1.664904
 H        -0.819948        -0.088775         0.058808
 H         3.033550        -0.057991         1.917751
 H         4.528299        -0.533980        -0.614889
 H         3.604964        -1.884640         0.033080
 H         2.176132        -2.122836        -2.022258
 H         3.082469         1.631256        -1.893259
 H         1.266843         1.117429        -1.883506
 H         2.627728         2.541477         1.336967
