19
Iteration:  2073charge 0 multiplicity 1
 C         0.099913        -0.588676         0.612338
 C         1.485227        -0.236484         0.185190
 C         2.732658        -0.016309         0.820440
 C         3.602659        -0.769568        -0.268936
 C         2.370663        -0.494479        -1.162465
 O         1.973141        -1.357658        -2.256948
 C         2.461182         1.018364        -1.370160
 C         2.052284         1.190407         0.038527
 O         1.600342         2.190666         0.890112
 H        -0.342611         0.282807         1.087628
 H        -0.482190        -0.814333        -0.333268
 H        -0.049074        -1.570408         1.169864
 H         2.782818         0.005550         1.961624
 H         4.611765        -0.349847        -0.342023
 H         3.748258        -1.794973         0.052379
 H         1.039620        -1.060953        -2.494983
 H         3.442770         1.436226        -1.680347
 H         1.773226         1.350235        -2.152589
 H         2.300452         2.511581         1.450122
