19
Iteration:    72charge 0 multiplicity 1
 C        -0.153360        -0.494752        -0.036724
 C         1.304203        -0.071975         0.115763
 C         2.640477        -0.068842         0.967074
 C         3.360933        -1.041383         0.122566
 C         2.430101        -0.529795        -1.061614
 O         2.053048        -1.330612        -2.097989
 C         2.591480         0.947708        -1.289640
 C         2.208226         1.125499         0.138952
 O         1.844760         2.375892         0.768127
 H        -0.887926        -0.154848         0.837387
 H        -0.672509        -0.151044        -1.031489
 H        -0.235397        -1.639614        -0.127298
 H         3.134610         0.183002         1.907848
 H         4.501872        -1.031293         0.089996
 H         2.935744        -2.084955         0.180821
 H         2.038854        -0.837403        -2.924920
 H         3.639255         1.224169        -1.611771
 H         1.834843         1.470007        -1.923460
 H         2.422408         2.470056         1.525585
