19
Iteration:  2323charge 0 multiplicity 1
 C        -0.024356        -0.592771         0.651019
 C         1.433515        -0.231779         0.318498
 C         2.796454        -0.010256         0.829689
 C         3.515583        -0.798786        -0.187613
 C         2.348681        -0.570901        -1.194325
 O         2.105374        -1.359231        -2.411322
 C         2.359426         1.021193        -1.405735
 C         1.975928         1.159583         0.089659
 O         1.740545         2.241465         0.957747
 H        -0.679740         0.215089         0.739000
 H        -0.517327        -1.051170        -0.270457
 H        -0.183631        -1.330804         1.476601
 H         3.042340         0.437862         1.773433
 H         4.493609        -0.437099        -0.515252
 H         3.608270        -1.887822        -0.034800
 H         2.018107        -0.736046        -3.116823
 H         3.406338         1.453522        -1.741298
 H         1.537665         1.239660        -2.120321
 H         2.533659         2.824295         0.970719
