19
Iteration:  4859charge 0 multiplicity 1
 C        -0.088558        -0.539127         0.406616
 C         1.328231        -0.147710         0.190051
 C         2.677436        -0.106453         0.892912
 C         3.342881        -1.028121        -0.088525
 C         2.365515        -0.571139        -1.134252
 O         2.014400        -1.346258        -2.234924
 C         2.570522         1.008052        -1.288742
 C         2.200388         1.138595         0.145675
 O         1.957180         2.451670         0.726078
 H        -0.728122         0.127298        -0.177225
 H        -0.209979        -1.610093         0.304988
 H        -0.319021        -0.233014         1.457669
 H         2.969614        -0.146252         1.931802
 H         4.467044        -0.680328        -0.238476
 H         3.157222        -2.041443         0.249120
 H         1.635606        -0.875420        -2.981683
 H         3.611824         1.148150        -1.790056
 H         1.796662         1.543276        -1.835377
 H         0.988821         2.600328         0.848783
