19
Iteration:  2760charge 0 multiplicity 1
 C         0.010341        -0.628633         0.651612
 C         1.421353        -0.327443         0.241573
 C         2.746112        -0.072199         0.816273
 C         3.523507        -0.822304        -0.238106
 C         2.251265        -0.493367        -1.153424
 O         2.135190        -1.175243        -2.370922
 C         2.253940         1.029579        -1.428510
 C         2.090591         1.200741         0.114476
 O         1.756840         2.234780         0.891186
 H        -0.442931        -1.572276         0.413044
 H         0.046239        -0.586141         1.761018
 H        -0.610057         0.145641         0.222412
 H         3.057883         0.316848         1.780706
 H         4.522454        -0.449692        -0.558391
 H         3.420599        -1.903519        -0.040977
 H         2.573981        -2.016833        -2.461688
 H         3.252675         1.290473        -1.827335
 H         1.532248         1.503247        -2.112485
 H         2.462650         2.256734         1.559191
