19
Iteration:  4114
 C        -0.072805        -0.385777         0.486715
 C         1.339472        -0.196360         0.079453
 C         2.692960        -0.182900         0.892875
 C         3.401140        -0.948199        -0.199203
 C         2.307225        -0.492818        -1.206972
 O         2.035327        -1.238194        -2.342957
 C         2.625604         1.038433        -1.284705
 C         2.197039         1.078868         0.163028
 O         1.822670         2.250051         0.949310
 H        -0.675987        -0.748314        -0.428880
 H        -0.466794        -0.897418         1.415279
 H        -0.275300         0.693168         0.431250
 H         2.615414        -0.433092         1.912962
 H         4.451133        -0.837814        -0.643843
 H         3.277198        -2.056940        -0.200895
 H         1.133419        -1.642846        -2.338546
 H         3.617525         1.330481        -1.613346
 H         1.761700         1.581624        -1.790872
 H         2.611598         2.456066         1.492189
