19
Iteration:  4622charge 0 multiplicity 1
 C        -0.111909        -0.484748         0.372895
 C         1.279701        -0.172949         0.102827
 C         2.710396        -0.074185         0.953108
 C         3.416912        -0.979742        -0.086792
 C         2.329798        -0.525808        -1.060204
 O         2.034465        -1.260182        -2.254624
 C         2.523493         0.960819        -1.346788
 C         2.181212         1.071037         0.084096
 O         1.987301         2.372168         0.829796
 H        -0.672241         0.401839         0.063029
 H        -0.539762        -1.358514        -0.097975
 H        -0.358546        -0.764168         1.405589
 H         2.895657         0.292660         2.024420
 H         4.322988        -0.714750        -0.623132
 H         3.523059        -2.133230         0.125342
 H         1.735387        -2.158964        -1.989996
 H         3.465891         1.379399        -1.612137
 H         1.772038         1.480603        -2.002095
 H         1.224719         2.822721         0.389181
