19
Iteration:  1333charge 0 multiplicity 1
 C         0.055702        -0.805748         0.402222
 C         1.321453        -0.125311         0.111686
 C         2.756161        -0.121781         0.921758
 C         3.429352        -1.027540        -0.158013
 C         2.318707        -0.489580        -1.090803
 O         1.842097        -1.141140        -2.193847
 C         2.734030         1.011110        -1.226942
 C         2.101099         1.146354         0.173030
 O         1.728915         2.492395         0.688374
 H        -0.240833        -0.236890         1.233670
 H        -0.545336        -0.807778        -0.456903
 H         0.034228        -1.877414         0.771850
 H         2.769405        -0.173200         2.032311
 H         4.540814        -0.966072        -0.183943
 H         3.200184        -2.088562         0.046731
 H         2.356402        -1.931992        -2.327777
 H         3.686292         1.356937        -1.582307
 H         1.996215         1.642520        -1.853260
 H         2.116471         2.997733        -0.074040
