19
Iteration:  1493
 C         0.026057        -0.591270         0.516170
 C         1.380205        -0.106837         0.155009
 C         2.765681        -0.028570         0.831472
 C         3.449752        -0.947496        -0.189605
 C         2.322186        -0.491326        -1.124375
 O         1.962356        -1.320967        -2.184367
 C         2.655190         1.033373        -1.337526
 C         2.118730         1.132454         0.082468
 O         1.592233         2.284852         0.855978
 H        -0.246592        -0.135026         1.507248
 H        -0.737802        -0.355692        -0.280066
 H        -0.033227        -1.582799         0.735164
 H         2.940778        -0.065238         1.912506
 H         4.438801        -0.925193        -0.691333
 H         3.289015        -1.987576         0.039304
 H         2.607690        -1.459349        -2.888982
 H         3.674625         1.377219        -1.605898
 H         1.975362         1.306306        -2.104982
 H         2.250440         2.972238         0.547629
