19
Iteration:   971charge 0 multiplicity 1
 C        -0.116424        -0.440931         0.380361
 C         1.297431        -0.195438         0.102897
 C         2.610657        -0.025128         0.956495
 C         3.462156        -0.935421        -0.112854
 C         2.328568        -0.509988        -1.146335
 O         2.140700        -1.230124        -2.317235
 C         2.562356         0.977981        -1.318122
 C         2.135836         1.081835         0.137557
 O         1.812013         2.222514         0.851233
 H        -0.530098         0.250353         1.106685
 H        -0.679523        -0.108069        -0.572919
 H        -0.508036        -1.471832         0.646621
 H         2.647332        -0.017112         2.064182
 H         4.383641        -0.462604        -0.405933
 H         3.466473        -2.052462         0.097318
 H         2.203611        -2.192440        -2.099398
 H         3.600809         1.217652        -1.567435
 H         1.808812         1.516938        -1.955066
 H         2.656448         2.577035         1.249835
