19
Iteration:  4367
 C         0.002558        -0.325824         0.448502
 C         1.416369        -0.086647         0.111593
 C         2.665680        -0.171023         0.909659
 C         3.409346        -1.147787        -0.139552
 C         2.327760        -0.533131        -1.128025
 O         1.991056        -1.283689        -2.261086
 C         2.697510         0.990943        -1.310159
 C         2.174771         1.177222         0.165875
 O         1.769948         2.292142         0.822407
 H        -0.015124        -1.215449         1.068132
 H        -0.312878         0.431000         1.154727
 H        -0.733643        -0.515023        -0.286477
 H         2.711277        -0.049674         2.064143
 H         4.424244        -1.021957        -0.583221
 H         3.271203        -2.279554        -0.063241
 H         1.225997        -0.898987        -2.738036
 H         3.754858         1.248890        -1.736328
 H         2.020822         1.473795        -2.130035
 H         0.819488         2.415215         0.690680
