19
Iteration:  4970
 C        -0.035285        -0.439249         0.401289
 C         1.383655        -0.168262         0.077157
 C         2.678450        -0.073917         0.913131
 C         3.456212        -0.948266        -0.105779
 C         2.317427        -0.561828        -1.095169
 O         1.926121        -1.333118        -2.240716
 C         2.604298         0.919535        -1.225197
 C         2.160062         1.144425         0.161709
 O         1.907897         2.334555         0.758131
 H        -0.743617         0.136540        -0.199513
 H        -0.406593        -1.500821         0.215120
 H        -0.320082        -0.484709         1.421541
 H         2.888159         0.014741         2.006485
 H         4.591288        -0.677604        -0.279665
 H         3.287309        -1.992233         0.255427
 H         1.431204        -0.685581        -2.784872
 H         3.671516         1.219231        -1.513504
 H         1.859514         1.309008        -1.948285
 H         1.287852         2.734192         0.139357
