19
Iteration:  4368
 C        -0.001801        -0.327074         0.447626
 C         1.425641        -0.083999         0.115149
 C         2.665522        -0.171481         0.915575
 C         3.415176        -1.144339        -0.131489
 C         2.320973        -0.532120        -1.130223
 O         1.990107        -1.281095        -2.260774
 C         2.704999         0.997274        -1.308961
 C         2.174387         1.179368         0.157976
 O         1.769774         2.282527         0.818364
 H        -0.036310        -1.212373         1.053539
 H        -0.291886         0.403993         1.179348
 H        -0.749483        -0.512451        -0.287582
 H         2.694532        -0.050600         2.028531
 H         4.387529        -1.042376        -0.596681
 H         3.283548        -2.285347        -0.084598
 H         1.203187        -0.916533        -2.734759
 H         3.736456         1.237709        -1.706805
 H         1.995597         1.464470        -2.123283
 H         0.830977         2.447842         0.679358
