19
Iteration:  4515charge 0 multiplicity 1
 C        -0.012440        -0.506104         0.425594
 C         1.362643        -0.148165         0.086183
 C         2.676112        -0.111468         0.914364
 C         3.428069        -1.122859        -0.085891
 C         2.420392        -0.495121        -1.091937
 O         1.793711        -1.240146        -2.213407
 C         2.691192         1.039003        -1.272340
 C         2.174592         1.126113         0.110555
 O         1.834239         2.346987         0.757576
 H        -0.786531        -0.664062        -0.325904
 H        -0.159646        -1.354816         1.143636
 H        -0.368853         0.398879         0.948990
 H         2.861538         0.086644         2.080837
 H         4.499138        -0.930889        -0.328822
 H         3.206344        -2.175931         0.060896
 H         2.511395        -1.410812        -2.844652
 H         3.746459         1.257517        -1.431694
 H         1.869331         1.365463        -2.027093
 H         1.344211         2.912472         0.095166
