19
Iteration:  2941charge 0 multiplicity 1
 C         0.012205        -0.594061         0.675985
 C         1.383076        -0.177902         0.096483
 C         2.753779        -0.020927         0.785282
 C         3.556573        -0.832712        -0.344719
 C         2.298692        -0.484527        -1.188831
 O         2.132635        -1.179107        -2.399420
 C         2.189813         1.055011        -1.343410
 C         2.087927         1.081465         0.134816
 O         1.799256         2.149626         0.991727
 H        -0.185457        -0.070557         1.675411
 H        -0.763615        -0.376870        -0.053970
 H        -0.026739        -1.631286         1.079240
 H         2.995555        -0.035992         1.861798
 H         4.464402        -0.236456        -0.432887
 H         3.764142        -1.876392        -0.163187
 H         2.258214        -2.129140        -2.066759
 H         3.090700         1.527089        -1.876622
 H         1.188538         1.280822        -1.769302
 H         2.576529         2.278344         1.581853
