19
Iteration:  3599
 C         0.140733        -0.820389         0.530014
 C         1.435762        -0.187664         0.094469
 C         2.787839        -0.130552         0.806057
 C         3.414252        -0.953630        -0.307235
 C         2.361054        -0.390013        -1.195080
 O         1.725599        -1.001699        -2.296071
 C         2.550168         1.094418        -1.310679
 C         2.159093         1.131269         0.145684
 O         1.787443         2.292445         1.003902
 H        -0.085130        -1.164657         1.557942
 H        -0.591584        -0.056368         0.324361
 H        -0.070393        -1.563199        -0.219529
 H         3.039938        -0.374654         1.848669
 H         4.553738        -0.868352        -0.652510
 H         2.990447        -2.022424        -0.177088
 H         2.207017        -1.839151        -2.474271
 H         3.545570         1.468643        -1.551226
 H         1.735345         1.529912        -1.899747
 H         1.931410         1.907872         1.869344
