19
Iteration:  2168
 C         0.042797        -0.868511         0.632357
 C         1.382408        -0.238455         0.214284
 C         2.761458        -0.012376         0.855711
 C         3.458605        -0.759478        -0.148280
 C         2.282109        -0.513575        -1.130000
 O         2.036825        -1.340794        -2.296646
 C         2.437096         1.105020        -1.323635
 C         2.001647         1.135349         0.064132
 O         1.798358         2.343994         0.785564
 H        -0.005773        -0.740226         1.675187
 H        -0.801225        -0.328676         0.193914
 H        -0.129296        -1.907703         0.301484
 H         3.058699         0.259588         1.901280
 H         4.403833        -0.280409        -0.411502
 H         3.671712        -1.861837        -0.199283
 H         1.844602        -0.790158        -3.120329
 H         3.372953         1.634619        -1.506272
 H         1.838937         1.554235        -2.125352
 H         2.641327         2.796844         0.609310
