19
Iteration:   449
 C        -0.126291        -0.587908         0.078916
 C         1.319802        -0.138955         0.043666
 C         2.611372        -0.094901         0.936345
 C         3.340036        -1.063012         0.016480
 C         2.393415        -0.494000        -1.016425
 O         1.947433        -1.210615        -2.123662
 C         2.729337         1.021809        -1.204351
 C         2.164807         1.164079         0.117690
 O         1.855557         2.318341         0.817228
 H        -0.545253        -0.285488         1.016379
 H        -0.630562        -0.187366        -0.777391
 H        -0.095998        -1.719710        -0.163764
 H         2.719793         0.030028         2.020117
 H         4.426619        -1.024840        -0.051924
 H         2.917160        -2.038529         0.307712
 H         2.703255        -1.332516        -2.778604
 H         3.772759         1.217712        -1.501500
 H         2.196318         1.343885        -2.109603
 H         2.151946         3.160837         0.399408
