19
Iteration:  4644
 C        -0.041696        -0.522801         0.392180
 C         1.358647        -0.116169         0.175602
 C         2.673964        -0.061301         0.870925
 C         3.452073        -0.949995        -0.122916
 C         2.344090        -0.467841        -1.123884
 O         1.850991        -1.275653        -2.210663
 C         2.660848         0.979776        -1.276211
 C         2.166516         1.140348         0.076633
 O         1.883218         2.307518         0.805900
 H        -0.662328         0.232440        -0.101572
 H        -0.288909        -1.466172        -0.088773
 H        -0.454945        -0.771191         1.378222
 H         2.679263        -0.332767         1.994350
 H         4.512446        -1.000352        -0.305256
 H         3.166373        -1.976187         0.366733
 H         2.317835        -2.110513        -2.029668
 H         3.667853         1.122672        -1.569182
 H         2.037516         1.408643        -2.109965
 H         1.564418         2.939118         0.148343
