19
Iteration:  3560charge 0 multiplicity 1
 C        -0.042438        -0.715176         0.623523
 C         1.429877        -0.368900         0.108496
 C         2.745134        -0.148137         0.850127
 C         3.449167        -0.805572        -0.428779
 C         2.259100        -0.396308        -1.301546
 O         2.009483        -1.157411        -2.409331
 C         2.421550         1.116111        -1.216196
 C         2.188272         1.103651         0.321114
 O         1.948648         2.301836         0.962429
 H        -0.167261        -0.795409         1.712425
 H        -0.697948         0.110228         0.204478
 H        -0.485327        -1.647837         0.173455
 H         2.925548        -0.437481         1.914592
 H         4.391659        -0.423227        -0.650141
 H         3.530510        -1.866048        -0.318231
 H         1.013676        -1.251180        -2.509192
 H         3.246486         1.453492        -1.918237
 H         1.568141         1.653778        -1.696463
 H         1.611251         2.040697         1.863520
