19
Iteration:  2838charge 0 multiplicity 1
 C         0.158543        -0.846987         0.469443
 C         1.463613        -0.171242         0.099801
 C         2.911922        -0.000495         0.769410
 C         3.553814        -0.986603        -0.151582
 C         2.360930        -0.450047        -1.081553
 O         1.703389        -1.058452        -2.260672
 C         2.577132         1.142369        -1.302937
 C         2.084302         1.176881         0.100799
 O         1.612030         2.179832         0.900995
 H         0.290210        -1.414180         1.352716
 H        -0.720512        -0.230999         0.717031
 H        -0.237391        -1.437627        -0.361880
 H         2.915407         0.147923         1.867688
 H         4.512424        -0.838433        -0.726367
 H         3.852562        -1.994193         0.111636
 H         1.403657        -1.915018        -1.964665
 H         3.586354         1.542710        -1.356990
 H         1.813653         1.405242        -2.045012
 H         1.862614         3.005460         0.433333
