19
Iteration:  3834charge 0 multiplicity 1
 C        -0.066911        -0.844707         0.407529
 C         1.325604        -0.191131         0.149632
 C         2.648521        -0.184224         0.840197
 C         3.359720        -0.905863        -0.316803
 C         2.252761        -0.336037        -1.156449
 O         1.941675        -1.187897        -2.273408
 C         2.522367         1.169220        -1.288284
 C         2.133786         1.130465         0.235050
 O         2.063953         2.290552         1.000245
 H        -0.493502        -0.176405         1.134971
 H        -0.813472        -0.858599        -0.431232
 H         0.172478        -1.904917         0.698902
 H         2.888270        -0.289103         1.944722
 H         4.342890        -0.650646        -0.370189
 H         3.150828        -1.943978        -0.366980
 H         1.869968        -0.730797        -3.121486
 H         3.522344         1.112644        -1.721628
 H         1.851921         1.719446        -1.956208
 H         2.965794         2.602103         1.230702
