19
Iteration:  4933
 C        -0.018955        -0.566464         0.424003
 C         1.317534        -0.082666         0.121237
 C         2.660988        -0.133624         0.879910
 C         3.348990        -0.973484        -0.108018
 C         2.308049        -0.501038        -1.111483
 O         2.041631        -1.344794        -2.171959
 C         2.592742         0.992869        -1.278515
 C         2.184255         1.128923         0.129918
 O         1.904883         2.372204         0.760161
 H        -0.735275         0.307075         0.271399
 H        -0.190838        -1.482682        -0.227017
 H        -0.131247        -0.633338         1.596009
 H         2.848716         0.029478         1.931447
 H         4.386155        -1.077984        -0.392423
 H         2.933932        -1.932188         0.063563
 H         1.253805        -1.162589        -2.729092
 H         3.627724         1.357728        -1.476175
 H         1.937153         1.325853        -2.064082
 H         1.870955         3.023539         0.050007
