19
Iteration:  1912charge 0 multiplicity 1
 C         0.115323        -0.721168         0.457087
 C         1.433579        -0.166074         0.265129
 C         2.805429        -0.076925         0.912968
 C         3.526690        -0.834199        -0.210773
 C         2.337672        -0.425038        -1.056392
 O         1.986897        -1.364235        -2.157790
 C         2.337123         1.071935        -1.426789
 C         2.099249         1.171551         0.051349
 O         1.697396         2.260473         0.795971
 H        -0.466470        -0.273094         1.410093
 H        -0.514802        -0.648475        -0.484932
 H         0.153747        -1.793282         0.669540
 H         3.168968         0.075788         1.951730
 H         4.564719        -0.438381        -0.490792
 H         3.599988        -1.892821        -0.085866
 H         1.479824        -0.870899        -2.897527
 H         3.060854         1.736964        -1.963498
 H         1.383761         1.179644        -1.967866
 H         2.417202         2.907853         0.857704
