19
Iteration:  2691charge 0 multiplicity 1
 C         0.168749        -0.685595         0.610619
 C         1.482174        -0.166226         0.097861
 C         2.850138        -0.008820         0.873656
 C         3.544956        -0.861097        -0.233422
 C         2.345267        -0.504526        -1.142654
 O         1.788900        -1.203738        -2.225990
 C         2.549310         1.031391        -1.323637
 C         2.133245         1.146403         0.142911
 O         1.505265         2.210580         0.749788
 H        -0.557995        -0.812890        -0.195804
 H         0.273644        -1.713702         0.947777
 H        -0.420199         0.010155         1.176403
 H         2.987025         0.062748         1.972777
 H         4.598799        -0.648762        -0.514068
 H         3.446901        -1.960815        -0.066394
 H         2.388797        -1.200516        -3.036777
 H         3.549829         1.380641        -1.488529
 H         1.757519         1.505523        -1.901421
 H         2.025972         2.422124         1.529953
