19
Iteration:   715charge 0 multiplicity 1
 C         0.088752        -0.634927         0.382758
 C         1.293068        -0.067305        -0.066689
 C         2.478851        -0.003442         0.857846
 C         3.234850        -1.076715        -0.039406
 C         2.371475        -0.565486        -1.144476
 O         2.138636        -1.179151        -2.331039
 C         2.737343         0.938566        -1.275327
 C         2.110364         1.233393         0.082780
 O         1.824845         2.310573         0.993871
 H         0.080184        -0.027859         1.319353
 H        -0.657541        -0.320219        -0.183090
 H         0.114398        -1.731901         0.663567
 H         2.406494         0.150094         1.944837
 H         4.331573        -1.081207        -0.029845
 H         2.863688        -2.041920         0.182413
 H         1.796111        -2.112736        -2.169197
 H         3.764211         1.262861        -1.280703
 H         2.228118         1.288288        -2.162665
 H         1.544699         3.200261         0.647376
