19
Iteration:  3334charge 0 multiplicity 1
 C         0.047371        -0.695817         0.635603
 C         1.496011        -0.321142         0.300797
 C         2.979717        -0.156579         0.837503
 C         3.493865        -0.975115        -0.437102
 C         2.317300        -0.371156        -1.219263
 O         1.815066        -0.998790        -2.362853
 C         2.423425         1.210562        -1.271785
 C         2.173317         1.100050         0.201303
 O         1.671891         2.189253         0.876508
 H        -0.119733        -1.261430         1.613226
 H        -0.537316         0.260405         0.428529
 H        -0.312517        -1.410026        -0.196220
 H         3.134428        -0.253677         1.959885
 H         4.527294        -0.975850        -0.755768
 H         3.357110        -2.088756        -0.242672
 H         2.491948        -1.473227        -2.832504
 H         3.425412         1.764138        -1.539452
 H         1.521462         1.622786        -1.760925
 H         1.203962         1.860691         1.651985
