19
Iteration:   497charge 0 multiplicity 1
 C        -0.118784        -0.652422         0.331930
 C         1.213418        -0.052339        -0.078826
 C         2.413306        -0.135545         0.921230
 C         3.250626        -1.054703        -0.039667
 C         2.343225        -0.456394        -1.135321
 O         2.098405        -1.258204        -2.172388
 C         2.837456         1.039279        -1.231853
 C         2.229335         1.200675         0.138316
 O         1.881995         2.365042         0.754521
 H        -0.308833        -0.177011         1.325867
 H        -0.857868        -0.367436        -0.422107
 H         0.025544        -1.716884         0.292624
 H         2.343281        -0.144354         2.028622
 H         4.324993        -0.806340        -0.334787
 H         3.102325        -2.117817         0.141281
 H         2.862032        -1.846242        -2.326605
 H         3.877810         1.354855        -1.453896
 H         2.187069         1.674447        -1.898189
 H         2.388195         2.354447         1.569408
