19
Iteration:  3531charge 0 multiplicity 1
 C         0.001014        -0.625947         0.652879
 C         1.417640        -0.220550         0.197052
 C         2.783700        -0.231278         0.734483
 C         3.538011        -0.922810        -0.390966
 C         2.243946        -0.437286        -1.245825
 O         2.006581        -1.129359        -2.349635
 C         2.246204         1.159390        -1.199789
 C         2.080478         1.094439         0.190003
 O         1.953744         2.185698         0.954660
 H        -0.428636        -0.333463         1.602322
 H        -0.648135        -0.119332        -0.058202
 H        -0.156581        -1.693408         0.417946
 H         3.230710        -0.114632         1.681289
 H         4.474176        -0.231475        -0.575336
 H         3.683533        -2.074156        -0.200360
 H         2.251641        -0.475919        -3.020002
 H         3.138366         1.563102        -1.713134
 H         1.383773         1.535445        -1.767515
 H         1.637395         1.818145         1.810173
