19
Iteration:  1367
 C         0.050349        -0.736611         0.366636
 C         1.372254        -0.135298         0.212453
 C         2.721216        -0.034737         0.916222
 C         3.434105        -0.948632        -0.095810
 C         2.285929        -0.498942        -1.085122
 O         1.934008        -1.177570        -2.262080
 C         2.596461         0.987278        -1.344116
 C         2.113082         1.111731         0.091458
 O         1.780748         2.373117         0.739145
 H        -0.530747        -0.172778         1.049129
 H        -0.614037        -0.557301        -0.455664
 H         0.103291        -1.820988         0.629916
 H         2.908039         0.205489         1.953561
 H         4.512048        -0.718185        -0.202811
 H         3.238070        -2.007364         0.243833
 H         1.814959        -2.071262        -2.021985
 H         3.609330         1.289265        -1.543553
 H         1.716773         1.491569        -1.881959
 H         2.579710         2.874232         0.961657
