19
Iteration:  2447charge 0 multiplicity 1
 C         0.078716        -0.722169         0.383259
 C         1.364921        -0.136513         0.102707
 C         2.751853        -0.110524         0.868105
 C         3.569974        -0.806435        -0.214956
 C         2.253329        -0.476191        -1.104871
 O         2.057598        -1.407964        -2.140837
 C         2.396357         1.127173        -1.214469
 C         2.056959         1.138431         0.208571
 O         1.761560         2.394978         0.694214
 H        -0.067568        -1.152583         1.454263
 H        -0.868260        -0.178179         0.248408
 H        -0.056168        -1.562504        -0.327124
 H         3.028534        -0.214899         1.922298
 H         4.531056        -0.347623        -0.623629
 H         3.599975        -1.896968        -0.097178
 H         1.155543        -1.667719        -2.104512
 H         3.345069         1.463815        -1.783096
 H         1.604079         1.523540        -1.902727
 H         2.614887         2.650653         1.131797
