19
Iteration:  2357
 C         0.096027        -0.684899         0.740305
 C         1.372480        -0.156493         0.124744
 C         2.663469        -0.216958         0.848288
 C         3.484505        -0.895467        -0.245037
 C         2.382182        -0.415072        -1.183033
 O         2.089282        -1.324205        -2.261424
 C         2.446107         1.122994        -1.266811
 C         2.094980         1.130697         0.124731
 O         1.673295         2.343967         0.675868
 H        -0.414588         0.059244         1.333848
 H        -0.523348        -1.100604        -0.083196
 H         0.256872        -1.531297         1.450960
 H         2.769947        -0.248083         1.968819
 H         4.453208        -0.391190        -0.439081
 H         3.515000        -1.975956        -0.247365
 H         1.664512        -0.829033        -2.997619
 H         3.374767         1.605567        -1.746438
 H         1.584284         1.440421        -1.843351
 H         2.298635         2.605478         1.358807
