19
Iteration:  1847charge 0 multiplicity 1
 C         0.057756        -0.628821         0.701085
 C         1.419567        -0.155824         0.132281
 C         2.792600        -0.040974         0.786228
 C         3.512520        -0.858732        -0.273215
 C         2.274034        -0.448271        -1.193395
 O         2.059160        -1.347287        -2.178485
 C         2.461021         1.063088        -1.339876
 C         2.156206         1.162920         0.155146
 O         1.566241         2.196444         0.751701
 H        -0.181390        -0.068116         1.701234
 H        -0.675021        -0.467682        -0.106494
 H         0.122104        -1.668519         1.011125
 H         3.045299        -0.160525         1.824544
 H         4.615594        -0.794184        -0.508540
 H         3.349443        -1.884753        -0.030394
 H         2.288776        -0.923728        -2.984279
 H         3.350689         1.553997        -1.769940
 H         1.537608         1.301546        -1.896835
 H         2.107405         2.969065         1.079249
