19
Iteration:   612
 C        -0.040300        -0.329061         0.178763
 C         1.414391        -0.084554         0.062891
 C         2.613321        -0.119804         0.960147
 C         3.405253        -0.960169        -0.109547
 C         2.340741        -0.473910        -1.093581
 O         2.078843        -1.321291        -2.194522
 C         2.734021         0.983333        -1.323537
 C         2.192326         1.120748         0.086571
 O         1.607653         2.194550         0.931987
 H        -0.463778         0.251911         0.988866
 H        -0.748411        -0.013465        -0.694728
 H        -0.275649        -1.418009         0.315216
 H         2.589377        -0.172994         2.067251
 H         4.410210        -0.635685        -0.428121
 H         3.287172        -2.085088        -0.053825
 H         1.670577        -2.116930        -1.794074
 H         3.806046         1.178285        -1.553301
 H         2.162193         1.431667        -2.154849
 H         2.319225         2.540116         1.481272
