19
Iteration:  2843
 C         0.180600        -0.835716         0.484040
 C         1.524597        -0.183580         0.113416
 C         2.883464         0.020759         0.791172
 C         3.550923        -1.014838        -0.150549
 C         2.361167        -0.491667        -1.106053
 O         1.697151        -1.026811        -2.245558
 C         2.582045         1.164479        -1.333895
 C         2.062862         1.141645         0.108147
 O         1.596920         2.204287         0.897252
 H         0.264871        -1.526696         1.415010
 H        -0.676298        -0.143031         0.606573
 H        -0.222572        -1.523053        -0.328457
 H         2.985423         0.064283         1.857959
 H         4.479028        -0.727598        -0.653908
 H         3.676317        -2.090071         0.174109
 H         1.394053        -1.995681        -2.216542
 H         3.634740         1.575880        -1.476409
 H         1.838362         1.413180        -2.110176
 H         1.822051         3.081511         0.544273
