19
Iteration:  2340charge 0 multiplicity 1
 C        -0.015519        -0.663172         0.690180
 C         1.329825        -0.282389         0.102872
 C         2.738970         0.007353         0.839053
 C         3.527604        -0.785473        -0.253619
 C         2.256518        -0.504823        -1.147092
 O         2.141182        -1.244799        -2.264251
 C         2.407688         0.979892        -1.392812
 C         2.073722         1.085050         0.156234
 O         1.746942         2.252533         0.803768
 H        -0.459927         0.290909         1.159897
 H        -0.620120        -1.097226        -0.103902
 H         0.173439        -1.239745         1.597465
 H         2.931192        -0.133954         1.893960
 H         4.485328        -0.397794        -0.661473
 H         3.590240        -1.829711         0.121170
 H         2.043916        -0.601493        -2.970600
 H         3.380999         1.328452        -1.642936
 H         1.503769         1.404358        -1.889544
 H         2.590345         2.677978         1.034017
