19
Iteration:  4559
 C        -0.097769        -0.381233         0.537528
 C         1.318518        -0.100668         0.072650
 C         2.716742        -0.132679         0.927458
 C         3.355892        -0.980951        -0.105163
 C         2.340272        -0.548555        -1.195151
 O         2.016280        -1.290605        -2.288649
 C         2.673735         0.977317        -1.351372
 C         2.135180         1.114700         0.091281
 O         1.853014         2.309823         0.846900
 H        -0.854612         0.218951         0.041286
 H        -0.255764        -1.459312         0.335389
 H        -0.186342        -0.144445         1.590880
 H         3.187650        -0.011767         2.030611
 H         4.438096        -0.786955        -0.374797
 H         3.295294        -2.067796         0.135579
 H         2.174408        -2.200936        -1.994704
 H         3.717464         1.304819        -1.592506
 H         1.947837         1.505262        -2.144165
 H         0.979324         2.533129         0.422642
