19
Iteration:  3009charge 0 multiplicity 1
 C         0.206191        -0.833591         0.568832
 C         1.561123        -0.232475         0.179627
 C         2.791340        -0.086432         0.828763
 C         3.568824        -0.924260        -0.200636
 C         2.359092        -0.423024        -1.224990
 O         1.652718        -0.966109        -2.263107
 C         2.636405         1.084132        -1.385802
 C         2.122985         1.142561         0.096964
 O         1.545812         2.152999         0.909349
 H        -0.503665         0.009802         0.815274
 H        -0.177013        -1.368335        -0.355557
 H         0.136104        -1.336436         1.545124
 H         2.847912         0.066298         1.907395
 H         4.512277        -0.590765        -0.537928
 H         3.482044        -2.017797        -0.165394
 H         1.637671        -1.939665        -2.159741
 H         3.739480         1.316081        -1.453733
 H         1.913073         1.690078        -2.035129
 H         1.929461         3.033844         0.857271
