19
Iteration:  2859charge 0 multiplicity 1
 C         0.243906        -0.832908         0.540512
 C         1.534720        -0.269824         0.211367
 C         2.813300        -0.071336         0.873879
 C         3.506542        -0.895875        -0.247678
 C         2.383404        -0.444505        -1.143231
 O         1.713295        -0.988098        -2.307433
 C         2.544125         1.024039        -1.366765
 C         2.134005         1.193784         0.111801
 O         1.536483         2.248057         0.872977
 H         0.180442        -1.224212         1.499410
 H        -0.530139        -0.047518         0.570006
 H        -0.062132        -1.430125        -0.288170
 H         3.052564        -0.000879         1.956819
 H         4.622243        -1.162377        -0.322750
 H         3.206409        -1.956383         0.116264
 H         1.892836        -1.953519        -2.243467
 H         3.536047         1.333899        -1.585103
 H         1.744133         1.436862        -1.983616
 H         2.085746         2.987949         0.583439
