19
Iteration:  3287
 C         0.129246        -0.796451         0.645713
 C         1.407554        -0.319135         0.090381
 C         2.787302        -0.158410         0.789717
 C         3.540254        -0.845860        -0.292756
 C         2.354110        -0.368965        -1.232457
 O         1.800434        -1.023052        -2.379379
 C         2.532786         1.218560        -1.299536
 C         2.105819         1.097779         0.191688
 O         1.741989         2.203736         0.934814
 H         0.339349        -1.591127         1.340705
 H        -0.404159         0.071813         1.109165
 H        -0.526381        -1.211864        -0.155553
 H         3.038454        -0.344009         1.815514
 H         4.601262        -0.503659        -0.510694
 H         3.675675        -1.949135        -0.215943
 H         1.115190        -1.679010        -2.109908
 H         3.488628         1.458661        -1.710750
 H         1.752890         1.534691        -1.940819
 H         1.611726         1.976440         1.879888
