19
Iteration:  2452charge 0 multiplicity 1
 C         0.056160        -0.729518         0.393953
 C         1.365518        -0.121353         0.196915
 C         2.762760        -0.136439         0.854305
 C         3.526523        -0.817901        -0.247468
 C         2.242353        -0.451018        -1.106441
 O         2.104464        -1.411504        -2.120309
 C         2.407928         1.116028        -1.266801
 C         2.056219         1.169916         0.185293
 O         1.762643         2.385436         0.711313
 H        -0.102420        -1.241912         1.303804
 H        -0.792226        -0.074317         0.113241
 H        -0.102928        -1.560110        -0.306836
 H         3.145702        -0.226541         1.878665
 H         4.415023        -0.290346        -0.512895
 H         3.565459        -1.914460        -0.156039
 H         1.161655        -1.783987        -2.250234
 H         3.288026         1.519204        -1.692305
 H         1.578868         1.524939        -1.851732
 H         2.620084         2.682765         1.017088
