19
Iteration:  1743charge 0 multiplicity 1
 C         0.102878        -0.817660         0.449736
 C         1.388683        -0.193512         0.163958
 C         2.762733         0.042942         0.854383
 C         3.459457        -0.805455        -0.122153
 C         2.308686        -0.468438        -1.125773
 O         2.066713        -1.418173        -2.262885
 C         2.317107         1.011178        -1.418511
 C         2.144935         1.210635         0.121375
 O         1.794751         2.394979         0.935677
 H        -0.237218        -0.333500         1.307113
 H        -0.727011        -0.712526        -0.306970
 H         0.171173        -1.955685         0.524843
 H         3.111932         0.040904         1.899111
 H         4.482014        -0.597999        -0.391547
 H         3.291860        -1.936047         0.034735
 H         1.073344        -1.325490        -2.360470
 H         3.212652         1.423968        -1.956271
 H         1.483746         1.424466        -1.946079
 H         2.205719         3.157627         0.473660
