19
Iteration:  2281charge 0 multiplicity 1
 C         0.137736        -0.591446         0.504614
 C         1.436376        -0.328496         0.177468
 C         2.757612        -0.100935         0.881441
 C         3.481503        -0.813994        -0.320515
 C         2.277263        -0.419687        -1.156284
 O         2.069787        -1.332951        -2.125210
 C         2.387439         1.156537        -1.382077
 C         2.210280         1.099291         0.131587
 O         1.591001         2.230044         0.829759
 H        -0.265709         0.353886         0.792541
 H        -0.482041        -0.971399        -0.309837
 H         0.074294        -1.398419         1.225287
 H         3.100340        -0.149624         1.905601
 H         4.490249        -0.525920        -0.691982
 H         3.480177        -1.860297        -0.057424
 H         1.226295        -1.238553        -2.563700
 H         3.262885         1.650208        -1.851746
 H         1.559443         1.621733        -1.842020
 H         2.380006         2.712238         1.201408
