19
Iteration:  3379charge 0 multiplicity 1
 C         0.024675        -0.729124         0.609602
 C         1.374456        -0.217337         0.090234
 C         2.673613        -0.193623         0.723207
 C         3.543507        -0.728241        -0.387149
 C         2.313509        -0.355707        -1.281183
 O         1.880025        -1.320168        -2.352524
 C         2.430041         1.170647        -1.292043
 C         2.107182         1.143305         0.247682
 O         1.972364         2.197211         1.129119
 H        -0.039074        -0.749235         1.751152
 H        -0.861984        -0.414638         0.012730
 H        -0.070396        -1.872049         0.469754
 H         2.822815        -0.125682         1.816347
 H         4.464224        -0.278610        -0.681322
 H         3.677841        -1.822781        -0.504727
 H         2.058084        -0.729096        -3.077343
 H         3.467427         1.523411        -1.687766
 H         1.616479         1.824619        -1.733668
 H         1.285353         2.099852         1.799399
