19
Iteration:   333charge 0 multiplicity 1
 C        -0.185117        -0.332800         0.440131
 C         1.225570        -0.147870         0.017739
 C         2.438468        -0.176751         0.909101
 C         3.288282        -1.128926         0.027682
 C         2.479802        -0.556750        -1.222493
 O         2.402446        -1.336724        -2.310395
 C         2.680745         1.064930        -1.169466
 C         2.058260         1.129937         0.129477
 O         1.899232         2.354956         0.798114
 H        -0.497771         0.267458         1.349959
 H        -0.937309        -0.125847        -0.388158
 H        -0.444513        -1.377242         0.582799
 H         2.420029        -0.257725         2.001595
 H         4.400151        -0.951346         0.096386
 H         3.082529        -2.147884         0.177389
 H         1.574195        -1.195372        -2.810907
 H         3.717860         1.351546        -1.338277
 H         2.073816         1.564005        -1.966637
 H         1.631345         2.924854         0.019357
