19
Iteration:  1156charge 0 multiplicity 1
 C        -0.049012        -0.607936         0.367335
 C         1.342777        -0.096229         0.015423
 C         2.515812        -0.140287         0.908569
 C         3.373994        -0.981225        -0.021603
 C         2.397217        -0.503447        -1.179104
 O         1.986102        -1.250925        -2.262755
 C         2.697351         1.043851        -1.345992
 C         2.199455         1.136364         0.124929
 O         1.876865         2.364221         0.928390
 H        -0.387022        -0.068024         1.236956
 H        -0.781543        -0.479481        -0.422444
 H         0.257531        -1.692856         0.618535
 H         2.335910        -0.203926         1.980185
 H         4.492481        -0.746731        -0.234310
 H         3.234765        -2.027714         0.071653
 H         1.972133        -2.175465        -2.012396
 H         3.734599         1.438103        -1.485144
 H         1.931494         1.583431        -2.023215
 H         1.336058         2.924219         0.298923
