19
Iteration:  2138charge 0 multiplicity 1
 C         0.092644        -0.778576         0.551792
 C         1.418515        -0.187943         0.112680
 C         2.785271        -0.082518         0.864928
 C         3.550514        -0.813163        -0.179583
 C         2.358779        -0.524302        -1.118653
 O         1.990244        -1.266601        -2.188858
 C         2.403232         0.991745        -1.409354
 C         2.035070         1.199721         0.122090
 O         1.691292         2.375335         0.778646
 H        -0.036922        -0.427319         1.567880
 H        -0.836395        -0.435133         0.020434
 H         0.170603        -1.919066         0.568561
 H         2.912791        -0.104285         1.985638
 H         4.516658        -0.318268        -0.418064
 H         3.626519        -1.917753        -0.245843
 H         1.450569        -0.734260        -2.735204
 H         3.304622         1.461585        -1.858827
 H         1.491259         1.173164        -1.991765
 H         2.423396         2.394959         1.454004
