19
Iteration:  2904
 C         0.066374        -0.718302         0.732493
 C         1.328276        -0.313381         0.154907
 C         2.782356        -0.121724         0.807019
 C         3.485264        -0.778701        -0.355044
 C         2.307505        -0.371239        -1.291747
 O         2.070502        -1.231981        -2.373787
 C         2.391326         1.091625        -1.329412
 C         2.015221         1.150901         0.211988
 O         1.761810         2.289557         0.906432
 H         0.169460        -0.668358         1.793138
 H        -0.673495         0.071245         0.618102
 H        -0.326246        -1.597834         0.229694
 H         2.881110        -0.112658         1.863980
 H         4.615358        -0.376618        -0.581814
 H         3.560542        -1.968696        -0.366171
 H         2.154712        -2.144270        -1.973513
 H         3.370624         1.357952        -1.727838
 H         1.687317         1.448480        -2.083560
 H         2.380403         2.377118         1.645050
