19
Iteration:  4055charge 0 multiplicity 1
 C         0.033342        -0.704335         0.373875
 C         1.378466        -0.103109         0.051481
 C         2.730804        -0.125051         0.844971
 C         3.326027        -1.090002        -0.151794
 C         2.265060        -0.499507        -1.160744
 O         1.781619        -1.161221        -2.253311
 C         2.728265         1.035773        -1.194714
 C         2.201194         1.145930         0.229040
 O         1.829173         2.353768         0.895901
 H        -0.177964        -1.532692        -0.301845
 H        -0.224562        -0.804380         1.433598
 H        -0.679800         0.085576         0.035774
 H         2.911313        -0.023750         1.938173
 H         4.459536        -1.102033        -0.573977
 H         2.816919        -2.069737        -0.150371
 H         2.188104        -0.772895        -3.040308
 H         3.832959         1.279542        -1.451612
 H         2.111238         1.649660        -1.876308
 H         2.680335         2.864916         0.921003
