19
Iteration:  3017charge 0 multiplicity 1
 C         0.227293        -0.843484         0.527927
 C         1.460096        -0.223275         0.165609
 C         2.880422        -0.103170         0.855559
 C         3.581936        -0.956769        -0.154931
 C         2.333518        -0.442058        -1.225168
 O         1.683738        -0.984181        -2.305534
 C         2.594740         1.155280        -1.349896
 C         2.054474         1.118186         0.090473
 O         1.578499         2.193560         0.906926
 H        -0.574114        -0.118236         0.700544
 H        -0.146898        -1.494016        -0.226315
 H         0.453750        -1.357837         1.474761
 H         3.003736         0.252237         1.918433
 H         4.537852        -0.472408        -0.577135
 H         3.241841        -1.937842         0.050921
 H         1.421819        -1.863158        -2.036839
 H         3.648997         1.276580        -1.648462
 H         2.028732         1.599119        -2.131147
 H         2.242622         2.886236         1.046904
