19
Iteration:   294charge 0 multiplicity 1
 C        -0.097808        -0.539754         0.259693
 C         1.273178        -0.161172         0.036908
 C         2.520348        -0.087973         0.944067
 C         3.297561        -1.051843         0.088923
 C         2.328040        -0.528810        -1.043227
 O         2.108630        -1.222082        -2.298963
 C         2.786881         0.876493        -1.169936
 C         2.148018         1.147918         0.173471
 O         1.838198         2.402788         0.661461
 H        -0.500603        -0.338428         1.221195
 H        -0.677089         0.000632        -0.534090
 H        -0.219143        -1.660901         0.132911
 H         2.390908        -0.029508         2.031536
 H         4.343726        -0.817553        -0.116824
 H         3.267005        -2.179629         0.432116
 H         2.171411        -0.535129        -2.956662
 H         3.910367         0.949129        -1.102326
 H         2.173330         1.404363        -1.899728
 H         2.573277         3.026863         0.623577
