19
Iteration:  1728charge 0 multiplicity 1
 C         0.032840        -0.772367         0.494258
 C         1.434422        -0.135833         0.232183
 C         2.745895         0.071654         0.846031
 C         3.484259        -0.810691        -0.205120
 C         2.288850        -0.522790        -1.144366
 O         2.052122        -1.309773        -2.200273
 C         2.416350         1.018604        -1.428274
 C         2.046558         1.203713         0.062346
 O         1.846108         2.250400         0.931207
 H        -0.648952        -0.555299         1.411464
 H        -0.423262        -0.619960        -0.471675
 H         0.168607        -1.948323         0.512431
 H         2.782890         0.382813         1.874121
 H         4.518701        -0.526256        -0.554515
 H         3.604726        -1.787655         0.301346
 H         1.187432        -1.822229        -2.278920
 H         3.347508         1.428360        -1.927265
 H         1.540486         1.271972        -2.188024
 H         1.827186         3.071479         0.462199
