19
Iteration:   861charge 0 multiplicity 1
 C        -0.060047        -0.595765         0.363698
 C         1.314728        -0.164289         0.131155
 C         2.566735        -0.123253         0.956125
 C         3.421731        -0.925340        -0.020238
 C         2.322461        -0.477485        -1.126068
 O         2.012777        -1.145207        -2.320256
 C         2.686258         0.991041        -1.240724
 C         2.155937         1.101629         0.157672
 O         1.849590         2.281274         0.746141
 H        -0.558089        -0.320178         1.304587
 H        -0.608142        -0.303701        -0.536427
 H         0.075414        -1.708212         0.299354
 H         2.496484        -0.045123         2.022751
 H         4.450906        -0.627747        -0.166016
 H         3.462140        -2.073439         0.100632
 H         1.930590        -2.041540        -2.011015
 H         3.651364         1.434159        -1.555134
 H         1.959012         1.501917        -1.891968
 H         2.107873         2.904866         0.072374
