19
Iteration:  2386
 C         0.157541        -0.776837         0.643688
 C         1.422550        -0.172124         0.073128
 C         2.805419         0.017292         0.802566
 C         3.384342        -0.945819        -0.218712
 C         2.328870        -0.488315        -1.121936
 O         2.026615        -1.289178        -2.286352
 C         2.613640         1.089320        -1.274867
 C         2.100916         1.174284         0.124430
 O         1.567979         2.396398         0.739096
 H        -0.113921        -0.316778         1.598784
 H        -0.519640        -0.604789        -0.210804
 H         0.283329        -1.845686         0.934340
 H         2.896758        -0.116324         1.850568
 H         4.389814        -0.902194        -0.607452
 H         3.082811        -1.950180         0.202250
 H         1.100337        -1.241122        -2.390535
 H         3.603885         1.288413        -1.574188
 H         1.815842         1.383593        -1.979021
 H         1.847125         2.396480         1.692541
