19
Iteration:   877
 C        -0.047589        -0.710774         0.327321
 C         1.309200        -0.205439         0.042961
 C         2.618499        -0.152392         0.982944
 C         3.428472        -1.043514        -0.029209
 C         2.412244        -0.566842        -1.000565
 O         2.006177        -0.962849        -2.262016
 C         2.619862         0.963246        -1.258576
 C         2.078558         1.145557         0.163679
 O         1.842974         2.396351         0.660612
 H        -0.214739        -0.191153         1.284766
 H        -0.934181        -0.358134        -0.306205
 H        -0.307264        -1.743526         0.487628
 H         2.798298        -0.054307         2.081322
 H         4.443208        -0.614635        -0.253148
 H         3.302652        -2.077629         0.320383
 H         1.848636        -1.937946        -2.435006
 H         3.699081         1.141094        -1.418738
 H         1.932953         1.284766        -2.092779
 H         2.472316         3.039927         0.321466
