19
Iteration:  4131
 C        -0.128383        -0.238837         0.459885
 C         1.339606        -0.136442         0.122721
 C         2.685790        -0.241688         0.840415
 C         3.378412        -1.005929        -0.256461
 C         2.305576        -0.459803        -1.231550
 O         2.096007        -1.279704        -2.327589
 C         2.545999         1.053274        -1.304468
 C         2.178546         1.158735         0.162051
 O         1.837615         2.157143         0.976501
 H        -0.661674        -0.802107        -0.259474
 H        -0.009891        -1.041482         1.181196
 H        -0.678676         0.622131         0.869352
 H         3.003226        -0.038980         1.933914
 H         4.461660        -0.782244        -0.434870
 H         3.514626        -2.053937         0.015567
 H         1.479993        -2.021036        -2.129917
 H         3.570716         1.389950        -1.667861
 H         2.011878         1.565809        -2.082114
 H         2.363164         2.142009         1.785515
