19
Iteration:  3022charge 0 multiplicity 1
 C         0.216643        -0.847046         0.530711
 C         1.450699        -0.195706         0.129742
 C         2.883683        -0.079582         0.857429
 C         3.562109        -0.937697        -0.177207
 C         2.323867        -0.420534        -1.168636
 O         1.708298        -1.009049        -2.334693
 C         2.566558         1.150233        -1.321283
 C         2.043643         1.127351         0.104059
 O         1.597496         2.208194         0.899159
 H        -0.636297        -0.150328         0.639760
 H        -0.163645        -1.677663        -0.171166
 H         0.498763        -1.491349         1.377602
 H         3.166797         0.152043         1.867895
 H         4.588720        -0.789185        -0.473596
 H         3.443796        -2.024018         0.153687
 H         1.280072        -1.851414        -2.032737
 H         3.610743         1.404982        -1.622927
 H         1.956667         1.560286        -2.202706
 H         2.437518         2.699812         1.082894
