19
Iteration:  4241charge 0 multiplicity 1
 C         0.012802        -0.661903         0.316127
 C         1.349810        -0.055099         0.056726
 C         2.651948        -0.092374         0.867839
 C         3.328969        -1.101895        -0.097212
 C         2.322961        -0.545245        -1.205779
 O         1.745683        -1.230093        -2.192287
 C         2.776641         1.048774        -1.276247
 C         2.229519         1.212362         0.183339
 O         1.867525         2.316967         0.902274
 H        -0.645279         0.197515         0.504238
 H        -0.440724        -1.184282        -0.568118
 H        -0.105560        -1.373998         1.165013
 H         2.861936        -0.034701         1.909209
 H         4.443458        -1.021419        -0.056647
 H         3.067045        -2.090527         0.290120
 H         2.065159        -0.821030        -3.002697
 H         3.866951         1.311695        -1.709114
 H         2.122230         1.528107        -2.014710
 H         2.531405         3.013351         1.102513
