19
Iteration:  1051
 C        -0.119429        -0.420177         0.403255
 C         1.313641        -0.064467         0.079125
 C         2.606160        -0.136500         0.917984
 C         3.457429        -0.965949        -0.124669
 C         2.419878        -0.512230        -1.079624
 O         2.031662        -1.250195        -2.257160
 C         2.833519         1.017421        -1.359828
 C         2.136316         1.219532        -0.003264
 O         1.615768         2.158522         0.925171
 H        -0.541763        -0.153193         1.427577
 H        -0.986436        -0.143268        -0.410249
 H        -0.120613        -1.508695         0.392763
 H         2.692367         0.019237         1.981855
 H         4.518790        -0.728926        -0.268028
 H         3.561104        -2.173152         0.084208
 H         1.727500        -2.191301        -2.102554
 H         3.927278         1.233436        -1.566980
 H         2.348245         1.296933        -2.335873
 H         2.396436         2.739620         1.224178
