19
Iteration:  2726charge 0 multiplicity 1
 C         0.082149        -0.583912         0.759967
 C         1.382311        -0.166458         0.079870
 C         2.775390        -0.152477         0.800619
 C         3.571901        -0.894904        -0.313514
 C         2.408282        -0.466649        -1.210494
 O         1.948258        -1.289989        -2.298240
 C         2.474836         1.163862        -1.253881
 C         2.124867         1.079141         0.153650
 O         1.531092         2.276728         0.756321
 H        -0.473050        -1.274207         0.199404
 H         0.414607        -0.964111         1.752239
 H        -0.456328         0.286999         1.085609
 H         2.912393        -0.250798         1.843398
 H         4.576038        -0.597101        -0.668123
 H         3.441121        -1.995405        -0.329617
 H         2.763541        -1.773279        -2.615622
 H         3.496319         1.540040        -1.492949
 H         1.739371         1.672922        -1.884920
 H         1.724696         2.395946         1.686262
