19
Iteration:  1988charge 0 multiplicity 1
 C         0.139606        -0.727729         0.692401
 C         1.381864        -0.143075         0.008315
 C         2.673505        -0.012687         0.842101
 C         3.464854        -0.838059        -0.185101
 C         2.384882        -0.584505        -1.141511
 O         2.045760        -1.280989        -2.266216
 C         2.522032         1.039419        -1.392713
 C         2.065355         1.149300         0.112091
 O         1.655365         2.324207         0.786571
 H         0.138817        -0.670990         1.795611
 H        -0.775653        -0.385830         0.234304
 H         0.212591        -1.757255         0.650841
 H         2.680252        -0.210189         1.949050
 H         4.451885        -0.403437        -0.447452
 H         3.661253        -1.772554         0.239930
 H         1.196000        -1.004492        -2.541156
 H         3.353149         1.554592        -1.927222
 H         1.548992         1.298374        -1.798613
 H         2.387009         2.639501         1.392760
