19
Iteration:   105
 C        -0.058974        -0.375172         0.294361
 C         1.350089        -0.092049        -0.027486
 C         2.513947        -0.188497         0.959405
 C         3.358439        -1.091931         0.042743
 C         2.389538        -0.575486        -1.094801
 O         2.038291        -1.261060        -2.247588
 C         2.780060         0.944957        -1.149323
 C         2.171490         1.140795         0.186729
 O         1.662874         2.399028         0.602476
 H        -0.228797        -0.108465         1.398128
 H        -0.692272         0.205365        -0.476156
 H        -0.175122        -1.520502         0.219265
 H         2.454186        -0.233706         2.037680
 H         4.472871        -0.883735        -0.030175
 H         3.260142        -2.207824         0.238979
 H         2.920199        -1.548536        -2.669746
 H         3.879530         1.212888        -1.203910
 H         2.189610         1.530758        -1.883223
 H         2.292722         2.767964         1.254342
