19
Iteration:  1215
 C        -0.032667        -0.341682         0.322315
 C         1.386737        -0.180812         0.231728
 C         2.758046        -0.170974         0.924014
 C         3.533206        -0.941214        -0.088876
 C         2.340128        -0.562454        -1.102989
 O         2.059625        -1.270036        -2.318247
 C         2.556139         0.940988        -1.251579
 C         2.134230         1.107009         0.140054
 O         1.651672         2.311220         0.742757
 H        -0.375559         0.017868         1.329571
 H        -0.657963         0.120825        -0.572597
 H        -0.364057        -1.372374         0.395993
 H         2.983705        -0.026998         1.999162
 H         4.547459        -0.707324        -0.357798
 H         3.453624        -2.101469        -0.087889
 H         1.124875        -1.326249        -2.496676
 H         3.542229         1.340717        -1.583300
 H         1.807657         1.341446        -1.976349
 H         2.109899         2.412519         1.570379
