19
Iteration:  4756charge 0 multiplicity 1
 C        -0.121895        -0.421993         0.512534
 C         1.348198        -0.151007         0.168389
 C         2.650985        -0.108731         0.840107
 C         3.351774        -1.022825        -0.133126
 C         2.355458        -0.434687        -1.167077
 O         2.120760        -1.360542        -2.231543
 C         2.527022         1.040098        -1.330046
 C         2.206641         1.076568         0.142782
 O         1.947612         2.306653         0.806331
 H        -0.262168        -0.907731        -0.399726
 H        -0.355276        -1.151846         1.300818
 H        -0.648037         0.469801         0.737772
 H         2.592598        -0.160112         1.883176
 H         4.422788        -0.847970        -0.206697
 H         3.203524        -2.092721         0.070906
 H         1.215611        -1.332925        -2.633509
 H         3.515068         1.279594        -1.582808
 H         1.784702         1.624362        -1.957101
 H         1.296668         2.819508         0.303667
