19
Iteration:  1038
 C        -0.082019        -0.414630         0.362621
 C         1.393854        -0.071243         0.062159
 C         2.646314        -0.124970         0.868312
 C         3.482561        -0.990041        -0.040674
 C         2.358368        -0.489891        -1.136958
 O         2.024337        -1.196974        -2.246942
 C         2.735401         0.966111        -1.370252
 C         2.186192         1.131949         0.123205
 O         1.600133         2.131219         0.886615
 H        -0.323400         0.116260         1.273907
 H        -0.675278         0.125780        -0.496440
 H        -0.306481        -1.485108         0.372615
 H         2.770416         0.097073         1.936569
 H         4.489571        -0.735112        -0.319419
 H         3.291147        -2.137270         0.214654
 H         1.926585        -2.070088        -1.868743
 H         3.788721         1.123000        -1.440657
 H         2.047606         1.509143        -2.078103
 H         2.006728         2.988804         0.860079
