19
Iteration:  1950
 C         0.082165        -0.824698         0.563030
 C         1.380609        -0.194530         0.125111
 C         2.851351         0.075119         0.795551
 C         3.471550        -0.857077        -0.246291
 C         2.322162        -0.496811        -1.162295
 O         1.963895        -1.425792        -2.175978
 C         2.614579         1.212324        -1.257793
 C         2.050143         1.195787         0.098318
 O         1.637161         2.338199         0.750570
 H        -0.085873        -0.546312         1.595311
 H        -0.874852        -0.554892         0.074706
 H         0.311444        -1.975131         0.439471
 H         2.983083         0.054736         1.851854
 H         4.413853        -0.614218        -0.724340
 H         3.340364        -1.915038         0.185864
 H         1.030479        -1.247296        -2.412827
 H         3.605731         1.545662        -1.582346
 H         1.783880         1.494532        -1.970515
 H         2.260892         2.411774         1.467704
