19
Iteration:  3424charge 0 multiplicity 1
 C         0.132869        -0.834688         0.469044
 C         1.434652        -0.213179         0.178513
 C         2.814672        -0.160491         0.841041
 C         3.480773        -0.945780        -0.339142
 C         2.275568        -0.411164        -1.257505
 O         1.885607        -1.017718        -2.432335
 C         2.333843         1.101609        -1.263162
 C         2.192175         1.115503         0.262057
 O         1.907637         2.284539         1.138372
 H        -0.486560        -0.241373         1.224157
 H        -0.395010        -1.044225        -0.488122
 H         0.019257        -1.812282         1.006843
 H         3.158816        -0.180222         1.841457
 H         4.530646        -0.885270        -0.545154
 H         3.308592        -2.020463        -0.156440
 H         0.937855        -1.065151        -2.556416
 H         3.187910         1.584459        -1.861012
 H         1.348626         1.379784        -1.796373
 H         1.395198         2.773977         0.464791
