19
Iteration:  1742charge 0 multiplicity 1
 C         0.101432        -0.815333         0.444656
 C         1.386914        -0.196924         0.173645
 C         2.763179         0.050692         0.852262
 C         3.456570        -0.805059        -0.120417
 C         2.308946        -0.473738        -1.135124
 O         2.066161        -1.412010        -2.262617
 C         2.317359         1.005801        -1.427926
 C         2.144635         1.213668         0.119336
 O         1.798213         2.387900         0.939589
 H        -0.281548        -0.347192         1.322127
 H        -0.708346        -0.676756        -0.304162
 H         0.192325        -1.976461         0.551681
 H         3.116631         0.045228         1.880819
 H         4.480853        -0.568323        -0.367900
 H         3.298784        -1.941390         0.050610
 H         1.100645        -1.342105        -2.326872
 H         3.250682         1.377775        -1.939058
 H         1.453094         1.449086        -1.942714
 H         2.183774         3.187339         0.484837
