19
Iteration:  4330
 C        -0.097843        -0.398514         0.464976
 C         1.314482        -0.126506         0.120641
 C         2.653929        -0.103924         0.977451
 C         3.373676        -1.091258        -0.221131
 C         2.322197        -0.467882        -1.107867
 O         2.016036        -1.355606        -2.280439
 C         2.593096         1.078319        -1.334812
 C         2.149311         1.054722         0.137013
 O         1.962016         2.305047         0.789954
 H        -0.067535        -0.892421         1.483003
 H        -0.734045         0.531636         0.519581
 H        -0.557173        -1.110163        -0.291411
 H         2.824937         0.096255         1.996344
 H         4.453879        -0.774714        -0.303013
 H         3.294452        -2.084562         0.089195
 H         2.246373        -0.735611        -2.986180
 H         3.751525         1.248676        -1.432337
 H         1.893822         1.557838        -1.956961
 H         1.204161         2.197034         1.402099
