19
Iteration:  4449charge 0 multiplicity 1
 C        -0.122907        -0.648825         0.314158
 C         1.306491        -0.131831         0.070523
 C         2.680208        -0.040575         0.885405
 C         3.311973        -0.947628        -0.064059
 C         2.316206        -0.488567        -1.163557
 O         2.044171        -1.351926        -2.149785
 C         2.564054         1.007218        -1.404215
 C         2.134153         1.198207         0.184786
 O         2.152447         2.348464         0.863202
 H        -0.539945        -1.421499        -0.357476
 H        -0.409823        -0.977844         1.367264
 H        -0.594404         0.363719         0.381445
 H         2.761449        -0.192880         2.031574
 H         4.399543        -0.860491        -0.126071
 H         2.948284        -1.944509        -0.112851
 H         1.093736        -1.310206        -2.414949
 H         3.542220         1.341933        -1.621514
 H         1.688790         1.376702        -1.955449
 H         1.365249         2.875173         0.632579
