19
Iteration:  2949charge 0 multiplicity 1
 C         0.033408        -0.593228         0.661498
 C         1.397886        -0.258578         0.171457
 C         2.842419        -0.124578         0.827632
 C         3.517552        -0.804094        -0.319283
 C         2.315056        -0.437536        -1.227122
 O         2.102759        -1.168116        -2.371274
 C         2.238325         1.036558        -1.405432
 C         2.063682         1.101268         0.159561
 O         1.742614         2.202357         0.990001
 H        -0.284671         0.153184         1.380503
 H        -0.730811        -0.504104        -0.091437
 H         0.037141        -1.625188         1.041308
 H         3.063892        -0.135262         1.870550
 H         4.513438        -0.296482        -0.730854
 H         3.433915        -1.925582        -0.189481
 H         2.242986        -2.147589        -2.228041
 H         3.035548         1.603128        -1.893353
 H         1.314127         1.450981        -1.766634
 H         2.605475         2.414458         1.395620
