19
Iteration:  1071
 C        -0.019276        -0.551252         0.392726
 C         1.303473        -0.150749        -0.029400
 C         2.583144        -0.087415         0.852337
 C         3.401694        -0.957248        -0.049576
 C         2.362243        -0.459554        -1.161903
 O         2.091816        -1.280159        -2.301796
 C         2.706948         1.002233        -1.261440
 C         2.089320         1.136276         0.129125
 O         1.764651         2.324248         0.842375
 H        -0.253396        -0.036305         1.310607
 H        -0.775907        -0.038943        -0.306104
 H        -0.340418        -1.557584         0.574161
 H         2.524340         0.003677         1.928860
 H         4.446267        -0.792561        -0.292533
 H         3.206481        -1.995873         0.389280
 H         1.673082        -2.115670        -1.919040
 H         3.753823         1.238831        -1.307112
 H         2.256799         1.668100        -2.025869
 H         2.334871         2.308864         1.634000
