19
Iteration:  3549charge 0 multiplicity 1
 C        -0.050311        -0.648360         0.579728
 C         1.395324        -0.311621         0.200209
 C         2.809225        -0.194039         0.850617
 C         3.492366        -0.780327        -0.439124
 C         2.252676        -0.415726        -1.215640
 O         2.035174        -1.192171        -2.460450
 C         2.350176         1.076727        -1.274584
 C         2.096054         1.034572         0.286529
 O         1.975796         2.283359         0.989646
 H        -0.072423        -0.563859         1.677687
 H        -0.850075         0.078121         0.249647
 H        -0.320389        -1.705429         0.331559
 H         2.966884        -0.340632         1.955584
 H         4.341864        -0.291574        -0.811688
 H         3.586561        -1.841931        -0.347035
 H         1.316306        -0.700164        -2.908963
 H         3.355466         1.520242        -1.613239
 H         1.398558         1.511609        -1.657579
 H         1.628259         2.306947         1.910281
