19
Iteration:  1371
 C         0.021408        -0.719010         0.373990
 C         1.408813        -0.153646         0.153148
 C         2.735489        -0.042807         0.922975
 C         3.429715        -0.946243        -0.060745
 C         2.329121        -0.462417        -1.095395
 O         1.942484        -1.191541        -2.258851
 C         2.568171         0.987404        -1.365420
 C         2.079362         1.137392         0.083739
 O         1.793466         2.360795         0.756550
 H        -0.518092        -0.138020         1.187922
 H        -0.724485        -0.588238        -0.479314
 H         0.104755        -1.718144         0.654247
 H         2.866375         0.087289         1.995258
 H         4.463263        -0.740443        -0.299934
 H         3.241463        -2.020887         0.259463
 H         1.703663        -2.122137        -1.899607
 H         3.553205         1.461987        -1.588303
 H         1.715721         1.243651        -1.953076
 H         2.610834         2.799063         1.116955
