19
Iteration:  1055charge 0 multiplicity 1
 C        -0.140951        -0.427653         0.399595
 C         1.327069        -0.093351         0.068198
 C         2.601867        -0.099469         0.906848
 C         3.405300        -0.976396        -0.114944
 C         2.428635        -0.556642        -1.109880
 O         2.043399        -1.256643        -2.255495
 C         2.846593         1.038231        -1.357810
 C         2.087719         1.210264         0.009628
 O         1.644858         2.207432         0.923109
 H        -0.421753        -0.126576         1.451503
 H        -0.892031        -0.244005        -0.288496
 H         0.010241        -1.547260         0.344528
 H         2.756740        -0.117119         2.006402
 H         4.496866        -0.655048        -0.206151
 H         3.585649        -1.996556        -0.049845
 H         1.700430        -2.153739        -2.074087
 H         3.965515         1.249369        -1.458389
 H         2.314920         1.281970        -2.256912
 H         2.445998         2.533799         1.338147
