19
Iteration:   266
 C        -0.013363        -0.584046         0.110769
 C         1.360459        -0.077712         0.011197
 C         2.573802        -0.139586         0.954956
 C         3.206685        -1.201106         0.092501
 C         2.439743        -0.428534        -1.071640
 O         1.957618        -1.320659        -2.087435
 C         2.804003         1.090014        -1.311271
 C         2.211918         1.205856         0.114363
 O         1.771859         2.430624         0.745679
 H        -0.532653        -0.442404         1.122205
 H        -0.669279        -0.260903        -0.673853
 H        -0.133242        -1.699494        -0.062760
 H         2.619266         0.031661         2.035371
 H         4.329133        -1.239862        -0.003302
 H         2.794563        -2.142307         0.204078
 H         2.508907        -1.260447        -2.928117
 H         3.822170         1.349920        -1.469893
 H         2.029077         1.477036        -2.024076
 H         2.218426         2.626843         1.573201
