19
Iteration:  4193charge 0 multiplicity 1
 C        -0.154696        -0.384586         0.447454
 C         1.334583        -0.145264         0.175580
 C         2.704224        -0.251122         0.894649
 C         3.465585        -1.084901        -0.190708
 C         2.350506        -0.455798        -1.197267
 O         1.871803        -1.167288        -2.293194
 C         2.646931         1.037579        -1.202730
 C         2.263790         1.087206         0.170046
 O         1.799819         2.273242         0.818623
 H        -0.888489         0.200111        -0.181023
 H        -0.302467        -1.490272         0.218541
 H        -0.573246        -0.379767         1.508488
 H         2.750688        -0.372576         2.019741
 H         4.483330        -0.857179        -0.503030
 H         3.342050        -2.215826         0.006043
 H         2.714643        -1.329223        -2.790687
 H         3.634849         1.332635        -1.586223
 H         1.863477         1.453101        -1.980060
 H         2.550093         2.898796         0.831970
