19
Iteration:  3692
 C        -0.017296        -0.605065         0.574499
 C         1.420842        -0.252634         0.135601
 C         2.810176        -0.152843         0.814999
 C         3.395600        -0.921193        -0.330105
 C         2.218322        -0.470748        -1.242516
 O         1.984831        -1.092197        -2.435456
 C         2.420089         1.134483        -1.334927
 C         2.128974         1.068388         0.216299
 O         1.901901         2.171268         1.160213
 H        -0.377291         0.141553         1.265249
 H        -0.687244        -0.325851        -0.299787
 H        -0.252675        -1.677423         0.794419
 H         2.941686        -0.028448         1.850865
 H         4.513141        -0.676332        -0.699662
 H         3.232830        -1.986061        -0.211159
 H         2.348964        -1.998759        -2.421798
 H         3.364889         1.533023        -1.709320
 H         1.634641         1.686369        -1.855159
 H         2.232409         3.030927         0.802103
