19
Iteration:  4300
 C        -0.172134        -0.560037         0.394872
 C         1.314866        -0.199322         0.094924
 C         2.602750        -0.103678         0.963907
 C         3.433545        -0.992569        -0.166198
 C         2.335397        -0.471608        -1.141733
 O         1.943819        -1.304982        -2.273705
 C         2.567398         1.022685        -1.319792
 C         2.187627         1.096654         0.199023
 O         2.077228         2.426172         0.785954
 H        -0.434077        -0.390306         1.436517
 H        -0.759660         0.199712        -0.046450
 H        -0.484315        -1.525222         0.171074
 H         2.426449        -0.449800         2.044040
 H         4.523869        -0.777952        -0.237503
 H         3.385620        -2.011475         0.180930
 H         2.373876        -0.857840        -3.033376
 H         3.632975         1.211624        -1.717719
 H         1.696806         1.386442        -1.894807
 H         1.735886         2.343717         1.708483
