19
Iteration:  2162charge 0 multiplicity 1
 C         0.016475        -0.884787         0.646163
 C         1.356275        -0.260542         0.205603
 C         2.715727         0.014488         0.854915
 C         3.526133        -0.744476        -0.166401
 C         2.282319        -0.526899        -1.158144
 O         2.021997        -1.296746        -2.265995
 C         2.437344         1.114217        -1.351544
 C         2.057317         1.175028         0.109958
 O         1.809570         2.268542         0.745038
 H        -0.216331        -0.710287         1.759370
 H        -0.774447        -0.261634         0.160248
 H        -0.100237        -1.944663         0.316863
 H         2.949398         0.343163         1.855581
 H         4.517693        -0.292608        -0.443484
 H         3.683019        -1.799246         0.107551
 H         1.780344        -0.766749        -3.067903
 H         3.441392         1.611512        -1.537230
 H         1.714504         1.455150        -2.124114
 H         2.654320         2.734751         0.734517
