19
Iteration:  2425charge 0 multiplicity 1
 C         0.080127        -0.839441         0.484362
 C         1.467608        -0.277120         0.120149
 C         2.660154         0.009958         0.864501
 C         3.539205        -0.808430        -0.104345
 C         2.405365        -0.475570        -1.189933
 O         1.888508        -1.302223        -2.200247
 C         2.574397         1.049049        -1.365665
 C         2.104286         1.212095         0.085380
 O         1.715606         2.374912         0.760871
 H        -0.118837        -0.946462         1.620806
 H        -0.667493        -0.111539         0.136996
 H        -0.373378        -1.762989         0.095622
 H         2.814079        -0.102980         1.946151
 H         4.534791        -0.282932        -0.184629
 H         3.494522        -1.870935         0.140269
 H         0.889665        -1.352896        -2.012704
 H         3.446956         1.637534        -1.827716
 H         1.776667         1.370492        -2.090844
 H         2.225392         2.387067         1.575052
