19
Iteration:  4021charge 0 multiplicity 1
 C         0.007610        -0.694053         0.449661
 C         1.350730        -0.117632        -0.022736
 C         2.593802        -0.231064         0.888319
 C         3.346607        -0.991237        -0.168424
 C         2.278669        -0.401370        -1.183475
 O         1.820115        -1.094073        -2.255237
 C         2.674603         1.048568        -1.337357
 C         2.194790         1.161363         0.155222
 O         1.946694         2.295285         0.936643
 H        -0.108713        -1.764591         0.571055
 H        -0.415534        -0.304984         1.358609
 H        -0.646059        -0.350505        -0.377193
 H         2.701995        -0.071328         1.902341
 H         4.559177        -0.869658        -0.260515
 H         3.213115        -2.126473        -0.116669
 H         2.393505        -1.858168        -2.395276
 H         3.748393         1.320869        -1.624140
 H         1.897500         1.660192        -1.797020
 H         2.676190         2.432463         1.569938
