19
Iteration:  1179charge 0 multiplicity 1
 C        -0.007412        -0.480912         0.329180
 C         1.398498        -0.071168        -0.022032
 C         2.632974        -0.137151         0.847958
 C         3.409421        -0.991830        -0.078620
 C         2.355180        -0.422966        -1.091482
 O         2.004410        -1.320237        -2.196370
 C         2.727142         1.033756        -1.314541
 C         2.148838         1.178142         0.068993
 O         1.687006         2.195884         0.943312
 H        -0.162975         0.076213         1.225029
 H        -0.816519        -0.147883        -0.369073
 H         0.053695        -1.625262         0.530188
 H         2.779502        -0.036110         1.904111
 H         4.530717        -0.846752        -0.220818
 H         3.122984        -2.049503        -0.084253
 H         1.353569        -1.913316        -1.769361
 H         3.799268         1.210277        -1.504293
 H         1.978200         1.559306        -2.035748
 H         1.982197         3.037056         0.612655
