19
Iteration:  2829charge 0 multiplicity 1
 C         0.112302        -0.846701         0.459828
 C         1.366024        -0.129765         0.118949
 C         2.865814        -0.022219         0.822013
 C         3.602084        -0.880646        -0.278809
 C         2.333502        -0.425865        -1.145440
 O         1.767094        -1.121208        -2.242745
 C         2.554104         1.057785        -1.256544
 C         2.120637         1.153668         0.126325
 O         1.654582         2.178919         0.904326
 H         0.341658        -1.586529         1.299831
 H        -0.607175        -0.106852         0.844058
 H        -0.198587        -1.451720        -0.469151
 H         3.080105         0.079732         1.885683
 H         4.607093        -0.539538        -0.564921
 H         3.392944        -1.873723         0.114584
 H         1.413640        -1.773491        -1.658642
 H         3.612154         1.454601        -1.522657
 H         1.912576         1.563281        -2.002049
 H         1.894297         3.010772         0.443230
