19
Iteration:  2337
 C        -0.033464        -0.659931         0.680152
 C         1.345908        -0.290481         0.123175
 C         2.756945         0.034823         0.847059
 C         3.526973        -0.794022        -0.243299
 C         2.263549        -0.491404        -1.134930
 O         2.138713        -1.261395        -2.295567
 C         2.381164         0.964485        -1.379083
 C         2.063440         1.096744         0.119720
 O         1.750687         2.248510         0.836346
 H        -0.403571         0.279719         1.123584
 H        -0.611017        -1.122347        -0.095867
 H         0.069173        -1.205711         1.599237
 H         2.963603        -0.078404         1.948523
 H         4.480860        -0.353016        -0.623645
 H         3.602192        -1.820979         0.063981
 H         2.055841        -0.589863        -3.055856
 H         3.444520         1.239986        -1.700426
 H         1.564122         1.423670        -1.941210
 H         2.603532         2.672743         0.985471
