19
Iteration:  2135charge 0 multiplicity 1
 C         0.137267        -0.770340         0.537187
 C         1.431073        -0.177653         0.112870
 C         2.779794        -0.095873         0.882439
 C         3.541699        -0.836247        -0.197436
 C         2.329348        -0.522960        -1.129111
 O         1.997852        -1.300177        -2.194373
 C         2.399369         1.033999        -1.407588
 C         2.034103         1.209024         0.134599
 O         1.680976         2.377635         0.782595
 H        -0.071424        -0.397150         1.524833
 H        -0.717339        -0.363012        -0.017602
 H         0.173590        -1.870172         0.637327
 H         2.985632        -0.067973         1.973267
 H         4.476492        -0.317033        -0.418409
 H         3.613093        -1.992175        -0.187958
 H         1.377905        -0.719280        -2.740949
 H         3.332058         1.471525        -1.744440
 H         1.482307         1.065751        -2.024090
 H         2.310987         2.442708         1.500035
