19
Iteration:  2685
 C         0.152104        -0.697425         0.584812
 C         1.452033        -0.145174         0.086843
 C         2.872194         0.007940         0.834534
 C         3.599245        -0.903114        -0.200338
 C         2.320207        -0.528327        -1.157314
 O         1.785819        -1.207133        -2.226546
 C         2.534832         0.989501        -1.296937
 C         2.125271         1.167366         0.148297
 O         1.516127         2.226976         0.780315
 H        -0.482924        -0.682580        -0.351534
 H         0.254972        -1.806109         0.767049
 H        -0.535434        -0.148192         1.330328
 H         3.044752         0.228670         1.870059
 H         4.617820        -0.536641        -0.401794
 H         3.548516        -1.938839         0.140868
 H         2.302751        -1.056986        -3.059390
 H         3.502864         1.525453        -1.630727
 H         1.706001         1.476528        -1.857365
 H         2.181401         2.500895         1.443781
