19
Iteration:   684charge 0 multiplicity 1
 C        -0.139849        -0.782327         0.364641
 C         1.186195        -0.032463         0.037709
 C         2.497740        -0.085282         0.962385
 C         3.264415        -0.985984        -0.045028
 C         2.331480        -0.423472        -1.152776
 O         2.165924        -1.185949        -2.309976
 C         2.736205         1.046678        -1.223892
 C         2.185284         1.107091         0.186090
 O         2.049974         2.356716         0.715128
 H        -0.527100        -0.380856         1.365879
 H        -1.032424        -0.568354        -0.310971
 H        -0.071921        -1.913370         0.453081
 H         2.593488         0.000415         2.059183
 H         4.311021        -0.753329        -0.143570
 H         3.018014        -2.057294         0.070729
 H         2.105173        -2.119684        -2.167916
 H         3.828885         1.328850        -1.296734
 H         2.132862         1.665073        -1.852211
 H         1.124773         2.519483         0.892926
