19
Iteration:  2031charge 0 multiplicity 1
 C         0.050440        -0.667414         0.656615
 C         1.414809        -0.157673         0.243284
 C         2.777766        -0.084281         0.764388
 C         3.473267        -0.884843        -0.288538
 C         2.338605        -0.445534        -1.132603
 O         2.170924        -1.302907        -2.176331
 C         2.329471         1.062387        -1.341780
 C         2.100515         1.102405         0.160187
 O         1.659920         2.264795         0.778026
 H        -0.481606        -0.044003         1.387729
 H        -0.531217        -0.582857        -0.260975
 H        -0.114558        -1.695612         0.975406
 H         3.060444        -0.158481         1.856455
 H         4.343884        -0.652189        -0.908560
 H         3.478486        -1.924088        -0.207588
 H         1.844574        -0.772371        -2.881162
 H         3.259465         1.567851        -1.705143
 H         1.526620         1.255427        -2.061595
 H         2.163486         3.079988         0.561267
