19
Iteration:   996
 C        -0.115998        -0.309652         0.289153
 C         1.378227        -0.201073         0.253178
 C         2.751717        -0.290256         0.908530
 C         3.508199        -1.067981        -0.128206
 C         2.378636        -0.501167        -1.123947
 O         2.143257        -1.161938        -2.278064
 C         2.429759         0.976309        -1.229135
 C         2.175225         1.076594         0.224886
 O         1.666469         2.344000         0.733892
 H        -0.740371         0.242421         1.015688
 H        -0.573711        -0.004404        -0.769058
 H        -0.411338        -1.330250         0.478144
 H         3.045613        -0.310961         1.957396
 H         4.412190        -0.519027        -0.137604
 H         3.419027        -2.216193         0.014113
 H         2.149188        -2.090310        -2.163834
 H         3.411478         1.275107        -1.742676
 H         1.519760         1.439004        -1.755432
 H         2.403972         2.980298         0.590771
