19
Iteration:  3963charge 0 multiplicity 1
 C        -0.111675        -0.367367         0.516477
 C         1.357460        -0.236924         0.096268
 C         2.760918        -0.240910         0.864956
 C         3.421059        -0.963445        -0.281160
 C         2.291778        -0.467892        -1.147125
 O         2.071248        -1.172149        -2.354460
 C         2.480750         1.049985        -1.280147
 C         2.252388         1.105037         0.180789
 O         1.828734         2.155364         0.967038
 H        -0.315541        -1.067579         1.311023
 H        -0.501505         0.637568         0.565983
 H        -0.593878        -0.832032        -0.336695
 H         2.950199        -0.374870         1.974036
 H         4.544668        -0.803242        -0.621326
 H         3.163229        -2.035575        -0.041456
 H         1.223626        -0.891865        -2.772833
 H         3.300576         1.623023        -1.715945
 H         1.526855         1.336055        -1.798642
 H         2.537513         2.698466         1.347518
