19
Iteration:   660
 C        -0.074772        -0.637130         0.240030
 C         1.307765        -0.178078         0.145727
 C         2.542616        -0.218699         0.998198
 C         3.396394        -1.063336        -0.038137
 C         2.303448        -0.519539        -1.066171
 O         2.132622        -1.115239        -2.312097
 C         2.588526         0.964869        -1.254290
 C         2.065227         1.126095         0.243629
 O         2.018292         2.546572         0.660139
 H        -0.665098        -0.195653         1.101205
 H        -0.590890        -0.231709        -0.565663
 H        -0.323533        -1.799122         0.183161
 H         2.470040        -0.452278         2.055801
 H         4.406758        -0.700286        -0.230313
 H         3.354715        -2.080943         0.202432
 H         2.213817        -2.070295        -2.372414
 H         3.594578         1.259211        -1.494958
 H         1.884525         1.469374        -1.935314
 H         1.362244         2.796245         1.366443
