19
Iteration:  4456
 C        -0.116770        -0.640478         0.345840
 C         1.310852        -0.158287         0.083301
 C         2.630970        -0.053931         0.854611
 C         3.328346        -0.983423        -0.062278
 C         2.335716        -0.480529        -1.115924
 O         2.026716        -1.359193        -2.147685
 C         2.555998         1.042261        -1.372607
 C         2.116223         1.181417         0.105714
 O         2.168899         2.396347         0.891075
 H        -0.371336        -1.301542        -0.463864
 H        -0.353621        -1.083094         1.282326
 H        -0.664241         0.311560         0.302406
 H         2.686233        -0.244551         1.843007
 H         4.385697        -0.854992        -0.322681
 H         3.135494        -2.084185         0.335753
 H         1.145380        -1.119584        -2.534622
 H         3.565143         1.309147        -1.795201
 H         1.808220         1.447996        -2.207947
 H         1.277787         2.712866         0.723550
