19
Iteration:   167
 C        -0.155486        -0.314137         0.415364
 C         1.318572        -0.106498         0.030465
 C         2.578637        -0.113373         0.978879
 C         3.245634        -1.171670         0.019949
 C         2.421991        -0.577306        -1.143636
 O         2.415899        -1.260735        -2.387031
 C         2.654159         0.921613        -1.326861
 C         2.180959         1.160059         0.143979
 O         1.673755         2.384739         0.803720
 H        -0.516850         0.430963         1.156967
 H        -0.747654        -0.263534        -0.478783
 H        -0.492614        -1.206060         0.743206
 H         2.305464        -0.249594         2.050300
 H         4.350764        -1.151968         0.005308
 H         2.847719        -2.096209         0.259036
 H         1.788478        -2.066668        -2.310560
 H         3.574787         1.367221        -1.634407
 H         1.838446         1.295084        -2.003673
 H         2.357544         2.946782         1.230843
