19
Iteration:  1998charge 0 multiplicity 1
 C         0.119605        -0.737395         0.691036
 C         1.332348        -0.179268         0.128591
 C         2.722257         0.023311         0.807153
 C         3.523321        -0.888303        -0.164402
 C         2.331937        -0.515828        -1.169203
 O         2.095529        -1.354817        -2.349991
 C         2.406902         1.036100        -1.312478
 C         2.140313         1.196664         0.140150
 O         1.645084         2.321738         0.776314
 H        -0.067596        -0.368199         1.687735
 H        -0.735106        -0.358941         0.134266
 H         0.123759        -1.773828         0.513451
 H         2.837171        -0.011265         1.924828
 H         4.487217        -0.565359        -0.580660
 H         3.503651        -1.883957         0.180397
 H         1.296246        -0.926838        -2.693769
 H         3.383965         1.513422        -1.570331
 H         1.613947         1.466677        -1.937026
 H         2.444564         2.780084         1.174138
