19
Iteration:  3995charge 0 multiplicity 1
 C        -0.094387        -0.550262         0.467341
 C         1.333901        -0.133169         0.060597
 C         2.749931        -0.228083         0.881945
 C         3.409707        -0.955752        -0.219238
 C         2.226670        -0.481089        -1.138764
 O         1.992351        -1.183985        -2.412424
 C         2.569675         1.124757        -1.273696
 C         2.094103         1.143728         0.165841
 O         1.980984         2.270530         0.967137
 H        -0.253736        -1.435392         1.069821
 H        -0.754164         0.123754         1.000051
 H        -0.510227        -0.648453        -0.516353
 H         2.800357        -0.307837         2.015674
 H         4.396781        -0.881352        -0.586698
 H         3.352621        -2.066244        -0.114795
 H         1.609711        -2.067067        -2.263923
 H         3.517408         1.576688        -1.426262
 H         1.783750         1.585444        -1.919295
 H         2.672164         2.273959         1.643826
