19
Iteration:  4202charge 0 multiplicity 1
 C        -0.134176        -0.456813         0.437380
 C         1.357765        -0.171672         0.167704
 C         2.652442        -0.231725         0.849380
 C         3.392656        -1.043921        -0.200786
 C         2.393928        -0.503524        -1.113675
 O         1.855805        -1.142057        -2.238196
 C         2.669671         1.010228        -1.302235
 C         2.304023         1.077669         0.208990
 O         1.792663         2.303083         0.831875
 H        -0.783520         0.280381        -0.109978
 H        -0.342718        -1.398358        -0.102948
 H        -0.396398        -0.515222         1.490498
 H         2.847836        -0.295660         1.902570
 H         4.463192        -0.939809        -0.448916
 H         3.175416        -2.114688        -0.050140
 H         2.467948        -1.250787        -3.012479
 H         3.678286         1.342837        -1.375221
 H         2.048479         1.763816        -1.841240
 H         2.481451         2.957276         0.607237
