19
Iteration:   600charge 0 multiplicity 1
 C        -0.099952        -0.263527         0.251099
 C         1.341507        -0.097815        -0.013113
 C         2.603952        -0.177457         0.846249
 C         3.449899        -0.960076        -0.126437
 C         2.439833        -0.529544        -1.183503
 O         2.062039        -1.397348        -2.204583
 C         2.805537         1.007308        -1.347934
 C         2.144512         1.196555         0.224560
 O         1.569779         2.198881         0.999490
 H        -0.437953         0.272799         1.127006
 H        -0.592903        -0.020053        -0.818974
 H        -0.238071        -1.309578         0.507106
 H         2.756963        -0.084196         1.929615
 H         4.526745        -0.717070        -0.222865
 H         3.458082        -2.068738         0.227278
 H         1.548687        -2.164143        -1.789814
 H         3.905907         1.292131        -1.441565
 H         2.137761         1.514928        -2.035541
 H         2.255387         2.919186         1.099805
