19
Iteration:   414
 C        -0.029393        -0.360169         0.102714
 C         1.434501        -0.264075         0.075041
 C         2.513486        -0.203642         1.018582
 C         3.430284        -0.968414         0.004875
 C         2.343219        -0.541091        -1.051164
 O         1.978887        -1.277298        -2.216590
 C         2.685961         0.974988        -1.135608
 C         2.163612         1.131197         0.241227
 O         1.812535         2.360069         0.721111
 H        -0.551668         0.197268         0.871554
 H        -0.411151         0.084525        -0.912553
 H        -0.426938        -1.386256         0.255234
 H         2.786485        -0.363022         2.041482
 H         4.457768        -0.751987        -0.208681
 H         3.363252        -2.115754         0.163074
 H         2.342148        -0.849959        -3.062565
 H         3.789152         1.193079        -1.324405
 H         1.951695         1.360235        -1.835183
 H         1.197797         2.648625        -0.002703
