19
Iteration:  3883charge 0 multiplicity 1
 C         0.001675        -0.631916         0.469663
 C         1.431811        -0.218423         0.133966
 C         2.743434        -0.181333         0.855759
 C         3.384239        -1.041802        -0.239618
 C         2.324678        -0.403399        -1.192308
 O         1.884364        -1.042911        -2.343220
 C         2.634161         1.111501        -1.371173
 C         2.191692         1.084035         0.192283
 O         1.790816         2.240288         0.975947
 H        -0.191536        -0.670694         1.581499
 H        -0.655517         0.175143         0.126110
 H        -0.201162        -1.521901        -0.114089
 H         2.691581        -0.316982         1.902960
 H         4.490011        -0.811136        -0.614678
 H         3.162249        -2.135877        -0.023852
 H         1.248116        -1.755565        -2.087943
 H         3.586918         1.459373        -1.719306
 H         1.790650         1.639915        -1.801927
 H         2.396409         2.732635         1.552376
