19
Iteration:  3102
 C         0.005681        -0.746564         0.603761
 C         1.394771        -0.325722         0.173978
 C         2.803182        -0.063905         0.761540
 C         3.486279        -0.715374        -0.312111
 C         2.304336        -0.514216        -1.181860
 O         2.020511        -1.112613        -2.361796
 C         2.242339         1.117271        -1.369202
 C         2.078342         1.096814         0.123377
 O         1.858143         2.249136         1.005561
 H        -0.739665         0.049351         0.474450
 H        -0.391210        -1.760593         0.344302
 H         0.000502        -0.650954         1.744269
 H         2.936597        -0.116110         1.860002
 H         4.525554        -0.308088        -0.543176
 H         3.801500        -1.816503        -0.143541
 H         2.401111        -2.016794        -2.409031
 H         3.238556         1.406319        -1.735308
 H         1.391353         1.326431        -1.949492
 H         2.651418         2.103022         1.568429
