19
Iteration:  3615charge 0 multiplicity 1
 C         0.106462        -0.833485         0.427793
 C         1.408021        -0.239632         0.151532
 C         2.878409        -0.069556         0.806660
 C         3.442285        -1.037003        -0.288276
 C         2.208158        -0.442650        -1.199171
 O         1.675069        -1.058144        -2.328379
 C         2.601567         1.158687        -1.282541
 C         2.195861         1.219335         0.247742
 O         1.778283         2.274382         0.974262
 H         0.271095        -1.170798         1.447270
 H        -0.784144        -0.150900         0.360408
 H        -0.071217        -1.784136        -0.141887
 H         2.964448         0.004526         1.885124
 H         4.419422        -0.915973        -0.605797
 H         3.450294        -1.999748         0.098865
 H         2.432836        -1.153392        -2.982759
 H         3.656834         1.318476        -1.563398
 H         1.880222         1.614149        -1.975453
 H         2.081021         2.292057         1.889209
