19
Iteration:  3660
 C         0.034691        -0.764724         0.512564
 C         1.345747        -0.195924         0.080549
 C         2.754624        -0.289480         0.860616
 C         3.444190        -0.958851        -0.310233
 C         2.268821        -0.432845        -1.174809
 O         1.946545        -1.089433        -2.339864
 C         2.466461         1.195158        -1.316437
 C         2.165064         1.144697         0.247367
 O         1.890552         2.269229         1.010642
 H        -0.104149        -0.721244         1.578832
 H        -0.738576        -0.240189        -0.110336
 H        -0.081401        -1.868201         0.275515
 H         2.850997        -0.221054         1.909905
 H         4.426901        -0.617520        -0.584522
 H         3.521550        -1.998471        -0.440456
 H         0.956640        -1.209086        -2.404289
 H         3.461098         1.592759        -1.634770
 H         1.619429         1.750599        -1.724262
 H         2.600675         2.852252         0.723285
