19
Iteration:  4889
 C        -0.033515        -0.585765         0.466358
 C         1.271862        -0.081566         0.056086
 C         2.587501        -0.046172         0.851855
 C         3.279874        -0.954425        -0.091911
 C         2.374684        -0.488107        -1.129551
 O         2.036547        -1.380269        -2.140646
 C         2.676282         0.974202        -1.386795
 C         2.085384         1.175632         0.062432
 O         2.039784         2.313593         0.831363
 H        -1.018733        -0.006430         0.405658
 H        -0.354953        -1.575512        -0.023903
 H        -0.092699        -0.588479         1.659314
 H         2.810583        -0.042068         1.964435
 H         4.384670        -0.651697        -0.169161
 H         3.303424        -1.985771         0.178399
 H         1.544239        -0.907877        -2.861204
 H         3.759092         1.171285        -1.659471
 H         1.998561         1.504867        -2.058597
 H         1.211905         2.789473         0.684688
