19
Iteration:  2828
 C         0.109820        -0.848687         0.462636
 C         1.369167        -0.127685         0.120704
 C         2.855972        -0.022004         0.825325
 C         3.600826        -0.872067        -0.288041
 C         2.331484        -0.425490        -1.153433
 O         1.775041        -1.125863        -2.238302
 C         2.556073         1.056794        -1.261030
 C         2.120780         1.144197         0.135060
 O         1.658753         2.182919         0.904412
 H         0.327869        -1.588143         1.257076
 H        -0.605701        -0.104082         0.837447
 H        -0.207053        -1.436208        -0.446487
 H         3.103490         0.063577         1.902134
 H         4.616053        -0.516999        -0.548517
 H         3.357430        -1.843661         0.089989
 H         1.388854        -1.799023        -1.663431
 H         3.591740         1.427508        -1.533591
 H         1.914656         1.568566        -1.994934
 H         1.892306         3.029680         0.459184
