19
Iteration:  1123charge 0 multiplicity 1
 C        -0.143997        -0.655867         0.343667
 C         1.273111        -0.172649         0.267166
 C         2.641048        -0.100393         0.930690
 C         3.311757        -1.022572        -0.068283
 C         2.313626        -0.529393        -1.032132
 O         2.146809        -1.073209        -2.343747
 C         2.577715         0.927918        -1.261538
 C         2.028265         1.127172         0.096100
 O         2.080181         2.449763         0.689568
 H        -0.802278        -0.349615         1.151612
 H        -0.639984        -0.672336        -0.585217
 H        -0.066236        -1.813005         0.531064
 H         2.709301         0.001809         2.028671
 H         4.392940        -0.884192        -0.450885
 H         3.191913        -2.053214         0.110757
 H         2.499181        -2.029420        -2.480217
 H         3.615540         1.349724        -1.214700
 H         1.932928         1.547254        -1.951360
 H         1.187683         2.575024         1.126249
