19
Iteration:  2863
 C         0.226260        -0.819001         0.553368
 C         1.553389        -0.234980         0.203978
 C         2.826572        -0.086402         0.864883
 C         3.498674        -0.898401        -0.226311
 C         2.367932        -0.379015        -1.137484
 O         1.735214        -1.006315        -2.331247
 C         2.516297         0.997198        -1.348502
 C         2.148802         1.167608         0.149036
 O         1.536379         2.248051         0.844888
 H         0.190950        -1.281650         1.609096
 H        -0.589866        -0.083103         0.552539
 H        -0.174611        -1.520403        -0.267016
 H         3.003972        -0.011146         1.900369
 H         4.522962        -1.158710        -0.472349
 H         3.288170        -1.924355        -0.003715
 H         1.977954        -1.959318        -2.252327
 H         3.598397         1.309735        -1.587601
 H         1.686691         1.367788        -1.960240
 H         2.140302         3.014196         0.665588
