19
Iteration:  3127charge 0 multiplicity 1
 C         0.116997        -0.654299         0.600635
 C         1.451050        -0.162237         0.157746
 C         2.904604        -0.150252         0.817033
 C         3.535273        -0.852645        -0.342242
 C         2.279616        -0.433025        -1.239980
 O         1.881696        -1.173309        -2.366568
 C         2.377492         1.117939        -1.296186
 C         2.150744         1.082570         0.220117
 O         1.591578         2.177760         0.969346
 H        -0.734178        -0.267231         0.029246
 H         0.072111        -1.698167         0.638880
 H        -0.084616        -0.218012         1.572244
 H         3.156609        -0.095920         1.859183
 H         4.671261        -0.641487        -0.625668
 H         3.484892        -1.979864        -0.394717
 H         2.646345        -1.779297        -2.573543
 H         3.262247         1.543392        -1.692169
 H         1.467378         1.523407        -1.653048
 H         2.340288         2.737092         1.299283
