19
Iteration:  1900
 C         0.006033        -0.742307         0.495616
 C         1.429581        -0.175081         0.090238
 C         2.848693        -0.020578         0.915086
 C         3.589631        -0.785182        -0.160851
 C         2.370943        -0.492252        -1.145481
 O         1.985178        -1.311273        -2.106212
 C         2.265477         1.069113        -1.403271
 C         2.061649         1.098079         0.093786
 O         1.761425         2.201998         0.807804
 H        -0.352326         0.018229         1.330105
 H        -0.752254        -0.558535        -0.322887
 H         0.043656        -1.745074         0.864837
 H         3.004898         0.281488         1.946130
 H         4.584409        -0.376318        -0.547908
 H         3.665359        -1.835390        -0.070975
 H         1.738165        -0.733587        -2.797680
 H         3.196729         1.574655        -1.798895
 H         1.326520         1.307032        -1.893135
 H         2.393291         2.952051         0.562887
