19
Iteration:  3876
 C        -0.025263        -0.688974         0.442718
 C         1.405686        -0.164378         0.054509
 C         2.742954        -0.208035         0.873792
 C         3.446837        -1.005908        -0.216194
 C         2.285202        -0.411995        -1.183144
 O         1.911982        -1.057320        -2.361267
 C         2.539724         1.058192        -1.322269
 C         2.230530         1.135501         0.196235
 O         1.840103         2.274815         0.993634
 H        -0.159823        -0.577174         1.514875
 H        -0.822414        -0.004174         0.101361
 H        -0.265238        -1.654577        -0.018259
 H         2.779800        -0.301818         2.008544
 H         4.505893        -1.109019        -0.567679
 H         3.173555        -2.077053        -0.090500
 H         1.088284        -1.501066        -2.125320
 H         3.567890         1.479570        -1.544299
 H         1.702569         1.530149        -1.940480
 H         2.551479         2.741512         1.503474
