19
Iteration:   485charge 0 multiplicity 1
 C        -0.110936        -0.661464         0.262750
 C         1.260041         0.065446        -0.102351
 C         2.439761        -0.114236         0.842398
 C         3.270083        -0.993862         0.025869
 C         2.399245        -0.467240        -1.136010
 O         2.002283        -1.353526        -2.236648
 C         2.837184         1.030565        -1.235408
 C         2.212286         1.191408         0.163430
 O         1.868365         2.361420         0.858641
 H        -0.413333        -0.508676         1.341188
 H        -0.986018        -0.497318        -0.240489
 H         0.048331        -1.769320         0.334840
 H         2.308205        -0.120245         1.949879
 H         4.382634        -0.781994         0.181486
 H         3.124088        -2.025458         0.172712
 H         2.851470        -1.883850        -2.448910
 H         3.916028         1.202211        -1.313368
 H         2.163785         1.468564        -2.030650
 H         2.634202         2.763173         1.357243
