19
Iteration:  3792charge 0 multiplicity 1
 C         0.095893        -0.639257         0.460561
 C         1.480755        -0.260297         0.105334
 C         2.755180        -0.177103         0.832155
 C         3.420882        -0.998603        -0.201989
 C         2.258688        -0.344673        -1.267737
 O         1.750747        -1.052204        -2.379855
 C         2.575219         1.080010        -1.323777
 C         2.145346         1.091523         0.210761
 O         1.813759         2.246249         1.027248
 H        -0.474860         0.275622         0.766674
 H        -0.481863        -1.039851        -0.425004
 H         0.037415        -1.417824         1.302656
 H         2.981341        -0.179905         1.937145
 H         4.573794        -0.716729        -0.471117
 H         3.138946        -2.036140         0.010839
 H         2.285204        -1.877412        -2.518626
 H         3.511177         1.543966        -1.611020
 H         1.809833         1.680920        -1.775680
 H         2.451929         2.222701         1.748867
