19
Iteration:  1008
 C        -0.052181        -0.332279         0.295094
 C         1.433458        -0.214876         0.222097
 C         2.702536        -0.215303         0.994098
 C         3.508607        -1.066163        -0.115845
 C         2.412807        -0.528365        -1.138670
 O         2.064106        -1.216128        -2.355142
 C         2.472073         1.051032        -1.212056
 C         2.143950         1.089467         0.272160
 O         1.641173         2.308538         0.725198
 H        -0.354296         0.441717         1.059155
 H        -0.312877         0.119691        -0.753182
 H        -0.482664        -1.305530         0.302921
 H         2.782015        -0.223895         2.065615
 H         4.562614        -1.115381        -0.442213
 H         3.466560        -2.201139         0.041717
 H         2.087844        -2.191299        -2.036699
 H         3.363192         1.716822        -1.513956
 H         1.548420         1.418353        -1.764110
 H         2.256820         3.028998         0.430993
