19
Iteration:  1054charge 0 multiplicity 1
 C        -0.136099        -0.424586         0.399883
 C         1.322118        -0.087677         0.071909
 C         2.602841        -0.108118         0.911384
 C         3.415331        -0.972743        -0.120167
 C         2.428634        -0.547083        -1.100471
 O         2.040615        -1.254201        -2.255871
 C         2.843398         1.034494        -1.358568
 C         2.099570         1.214891         0.003822
 O         1.636865         2.194826         0.924576
 H        -0.460819        -0.129603         1.468409
 H        -0.926204        -0.225820        -0.322255
 H        -0.011657        -1.538608         0.349597
 H         2.742436        -0.088279         2.001818
 H         4.514932        -0.678593        -0.215570
 H         3.594694        -2.043259        -0.023681
 H         1.695701        -2.189496        -2.084877
 H         3.979938         1.250647        -1.493576
 H         2.330494         1.276124        -2.275453
 H         2.441059         2.583940         1.311609
