19
Iteration:   113
 C        -0.121990        -0.348473         0.370964
 C         1.297770        -0.113889        -0.067272
 C         2.476981        -0.233590         0.955575
 C         3.376350        -1.051685         0.029367
 C         2.446119        -0.515852        -1.136407
 O         2.050456        -1.257341        -2.263194
 C         2.921282         0.930420        -1.197827
 C         2.161077         1.106130         0.195004
 O         1.624782         2.380032         0.628184
 H        -0.308509        -0.040418         1.456433
 H        -1.034388         0.039529        -0.090513
 H        -0.149900        -1.369990         0.376430
 H         2.540520        -0.149878         2.066837
 H         4.498734        -0.843926         0.039513
 H         3.189794        -2.016126         0.360043
 H         2.804420        -1.825421        -2.652792
 H         3.986568         1.140444        -1.290074
 H         2.314226         1.524853        -1.943412
 H         2.311603         2.873167         1.143840
