19
Iteration:  1843charge 0 multiplicity 1
 C         0.076712        -0.647359         0.731193
 C         1.439281        -0.179466         0.124151
 C         2.796071        -0.047103         0.801177
 C         3.474050        -0.857891        -0.249650
 C         2.361213        -0.455690        -1.193431
 O         2.035317        -1.325687        -2.165689
 C         2.435657         1.086452        -1.336627
 C         2.181529         1.168772         0.097479
 O         1.553451         2.195037         0.740510
 H        -0.107151        -0.024355         1.613364
 H        -0.706422        -0.450987        -0.065478
 H        -0.104410        -1.736283         0.975580
 H         2.908136        -0.120158         1.886117
 H         4.540562        -0.817373        -0.547726
 H         3.247771        -1.922619        -0.006666
 H         2.241313        -0.845520        -3.029026
 H         3.329257         1.576664        -1.812155
 H         1.584638         1.353861        -1.959291
 H         2.126217         2.829260         1.167533
