19
Iteration:  2402
 C         0.146046        -0.762259         0.539996
 C         1.392737        -0.063991         0.121749
 C         2.779690         0.091528         0.840897
 C         3.505849        -0.968506        -0.153165
 C         2.317176        -0.502443        -1.095108
 O         1.966252        -1.188720        -2.214167
 C         2.565526         0.980451        -1.372806
 C         2.050485         1.164014         0.039443
 O         1.642000         2.249953         0.747660
 H         0.009339        -0.696884         1.660219
 H        -0.843834        -0.621756         0.061489
 H         0.222521        -1.865489         0.459291
 H         2.903968         0.330705         1.953607
 H         4.519511        -0.653881        -0.520963
 H         3.355835        -1.977626         0.204222
 H         1.022463        -1.290731        -2.304319
 H         3.635931         1.428590        -1.480668
 H         2.099491         1.511634        -2.201028
 H         1.908857         2.168328         1.681355
