19
Iteration:  1902charge 0 multiplicity 1
 C         0.031745        -0.746025         0.487729
 C         1.416308        -0.157363         0.114037
 C         2.854367        -0.035517         0.940793
 C         3.582847        -0.796276        -0.172446
 C         2.366823        -0.480929        -1.118645
 O         1.984256        -1.319400        -2.114593
 C         2.274580         1.068002        -1.414846
 C         2.063568         1.122636         0.083890
 O         1.761157         2.194225         0.793789
 H        -0.362975         0.046809         1.307056
 H        -0.753206        -0.585880        -0.318672
 H         0.026981        -1.819010         0.795258
 H         3.058231         0.272848         2.000526
 H         4.577898        -0.336672        -0.531156
 H         3.614909        -1.883265        -0.094598
 H         1.674708        -0.731931        -2.861553
 H         3.147428         1.677499        -1.787510
 H         1.301141         1.261575        -1.941932
 H         2.364983         2.964038         0.638878
