19
Iteration:  4522charge 0 multiplicity 1
 C         0.007056        -0.444584         0.457000
 C         1.401160        -0.082003         0.042873
 C         2.736285        -0.161060         0.908361
 C         3.394666        -1.087027        -0.064966
 C         2.396271        -0.531209        -1.116833
 O         1.821818        -1.208365        -2.219452
 C         2.683390         1.003799        -1.275996
 C         2.101155         1.110094         0.145946
 O         1.810820         2.307657         0.734621
 H        -0.674501        -0.588015        -0.372564
 H        -0.083867        -1.365464         1.000981
 H        -0.373959         0.300232         1.175518
 H         2.866731        -0.132227         1.925404
 H         4.434641        -0.865650        -0.310585
 H         3.267508        -2.151721         0.425346
 H         2.433787        -1.640738        -2.821926
 H         3.719661         1.397240        -1.410790
 H         1.926331         1.314401        -2.102332
 H         1.377849         3.019164         0.205202
