19
Iteration:   639
 C        -0.156613        -0.473141         0.149632
 C         1.349487        -0.227970         0.135344
 C         2.646816        -0.133794         0.970036
 C         3.443423        -1.052360         0.046825
 C         2.453135        -0.544941        -1.093619
 O         2.023955        -1.153920        -2.316485
 C         2.570974         1.010612        -1.215713
 C         2.132600         1.114645         0.148993
 O         1.860860         2.399239         0.727044
 H        -0.654234        -0.005714         1.081691
 H        -0.576052        -0.079883        -0.754345
 H        -0.212209        -1.638598         0.169848
 H         2.874915         0.005681         2.028976
 H         4.520212        -0.960312        -0.093029
 H         3.134646        -2.047303         0.318228
 H         2.117490        -2.096138        -2.094387
 H         3.454617         1.544559        -1.594241
 H         1.743886         1.247181        -1.902941
 H         1.826403         2.369635         1.677382
