19
Iteration:  1052charge 0 multiplicity 1
 C        -0.124094        -0.421306         0.402357
 C         1.314901        -0.072915         0.077428
 C         2.605043        -0.127161         0.917383
 C         3.442202        -0.966354        -0.125386
 C         2.424169        -0.524052        -1.084871
 O         2.034680        -1.250883        -2.256814
 C         2.836837         1.023732        -1.359054
 C         2.124560         1.219687        -0.002953
 O         1.621693         2.169662         0.925484
 H        -0.523413        -0.144173         1.456695
 H        -0.983241        -0.171516        -0.392358
 H        -0.079641        -1.516072         0.375441
 H         2.708471        -0.018354         1.986308
 H         4.524030        -0.716919        -0.247396
 H         3.582967        -2.145670         0.047729
 H         1.708539        -2.211484        -2.099681
 H         3.959561         1.242772        -1.550236
 H         2.346615         1.285258        -2.320072
 H         2.421814         2.692413         1.256238
