19
Iteration:  1962charge 0 multiplicity 1
 C         0.144078        -0.816039         0.667821
 C         1.401816        -0.149164         0.101930
 C         2.671533        -0.020758         0.793744
 C         3.507441        -0.837933        -0.194586
 C         2.358443        -0.466596        -1.183137
 O         1.961354        -1.353484        -2.148803
 C         2.562500         1.169444        -1.412423
 C         2.059468         1.160091         0.043796
 O         1.659350         2.291204         0.754620
 H        -0.055490        -0.762380         1.693354
 H        -0.649556        -0.406253         0.024359
 H         0.113902        -1.954896         0.487879
 H         2.886109         0.144540         1.816755
 H         4.540451        -0.572959        -0.319760
 H         3.537122        -1.940857         0.039919
 H         1.044817        -1.193365        -2.315535
 H         3.625431         1.471720        -1.327886
 H         2.060839         1.865017        -2.104788
 H         2.155188         2.448313         1.608505
