19
Iteration:  3470
 C         0.064614        -0.813605         0.602098
 C         1.429940        -0.222806         0.087684
 C         2.867989        -0.240036         0.795369
 C         3.459624        -0.904965        -0.461751
 C         2.324581        -0.299960        -1.172938
 O         1.767035        -0.994116        -2.312176
 C         2.642546         1.166434        -1.273140
 C         2.123880         1.112370         0.161864
 O         1.657523         2.185321         0.994088
 H        -0.436361        -0.055368         1.303059
 H        -0.552154        -1.247203        -0.219684
 H         0.235677        -1.676160         1.259730
 H         3.229451        -0.441253         1.835783
 H         4.401811        -0.525688        -0.729064
 H         3.460750        -1.943264        -0.303991
 H         1.424180        -1.857628        -1.971976
 H         3.764691         1.353868        -1.491997
 H         2.018070         1.832485        -1.986812
 H         2.348910         2.514499         1.628849
