19
Iteration:  4900charge 0 multiplicity 1
 C        -0.073702        -0.611257         0.494010
 C         1.301025        -0.060403         0.050659
 C         2.529313        -0.069673         0.814993
 C         3.374949        -0.959734        -0.058771
 C         2.286299        -0.506494        -1.175180
 O         2.033159        -1.458974        -2.193398
 C         2.668564         0.990426        -1.381812
 C         2.181697         1.237514         0.088382
 O         1.994959         2.371131         0.904277
 H        -0.773030         0.230363         0.175417
 H        -0.345084        -1.660178         0.078105
 H         0.112579        -0.950174         1.627318
 H         2.747758         0.093140         1.913503
 H         4.486355        -0.849428        -0.241113
 H         3.067587        -1.944419         0.254674
 H         1.490508        -0.918264        -2.797985
 H         3.742262         1.335212        -1.481901
 H         2.048474         1.438957        -2.165525
 H         1.423301         2.951850         0.392257
