19
Iteration:  4820charge 0 multiplicity 1
 C        -0.053868        -0.380799         0.436989
 C         1.380361        -0.188555         0.097733
 C         2.731941        -0.082324         0.848913
 C         3.357686        -0.995424        -0.071623
 C         2.320136        -0.487683        -1.154432
 O         1.978486        -1.339442        -2.138116
 C         2.649696         1.018600        -1.345477
 C         2.229070         1.104285         0.132794
 O         1.849361         2.243025         0.799469
 H        -0.655721        -0.534356        -0.523272
 H        -0.284276        -1.377273         0.939716
 H        -0.560690         0.444734         1.034214
 H         2.987569         0.083304         1.864928
 H         4.322130        -0.737399        -0.345360
 H         3.347493        -2.093120         0.191494
 H         1.495660        -0.773457        -2.776038
 H         3.580625         1.354469        -1.650454
 H         1.833038         1.479300        -1.959063
 H         0.980443         2.401591         0.422771
