19
Iteration:  1248
 C        -0.094780        -0.418167         0.421331
 C         1.383157        -0.252278         0.124988
 C         2.665932        -0.178916         0.901891
 C         3.467431        -0.873441        -0.134377
 C         2.339443        -0.492389        -1.187907
 O         2.130381        -1.379179        -2.199949
 C         2.468596         1.067772        -1.276006
 C         2.159029         1.083669         0.185265
 O         1.860436         2.327651         0.705306
 H        -0.280305         0.080513         1.433283
 H        -0.918774         0.124503        -0.262167
 H        -0.422843        -1.459586         0.565211
 H         2.789267        -0.088617         2.010684
 H         4.536345        -0.690330        -0.158136
 H         3.261530        -2.045146        -0.074638
 H         1.957206        -1.001085        -3.135680
 H         3.428195         1.644587        -1.454926
 H         1.529991         1.498223        -1.779948
 H         1.274361         2.090056         1.455564
