19
Iteration:  2180charge 0 multiplicity 1
 C         0.129057        -0.789719         0.611283
 C         1.365082        -0.211643         0.184536
 C         2.725832        -0.063544         0.867139
 C         3.476296        -0.863436        -0.284858
 C         2.321122        -0.433729        -1.171141
 O         2.083742        -1.389173        -2.253971
 C         2.427974         1.043210        -1.347399
 C         1.926631         1.162201         0.135637
 O         1.750754         2.457567         0.846939
 H         0.074292        -0.891747         1.646935
 H        -0.788691        -0.299601         0.273612
 H         0.221791        -1.864427         0.299558
 H         2.950581        -0.086574         1.975534
 H         4.456266        -0.552138        -0.681597
 H         3.438083        -1.942813         0.037197
 H         1.927539        -0.748416        -2.978084
 H         3.469122         1.228538        -1.536727
 H         1.625234         1.483232        -1.899480
 H         2.462472         3.030614         0.548150
