19
Iteration:  3393
 C         0.038722        -0.808605         0.555979
 C         1.318734        -0.157418         0.136573
 C         2.787271        -0.182710         0.776042
 C         3.470413        -0.802376        -0.438635
 C         2.230347        -0.357981        -1.265446
 O         1.967275        -1.237507        -2.287338
 C         2.403451         1.244780        -1.227353
 C         2.049783         1.046926         0.196884
 O         2.035523         2.185990         1.073765
 H        -0.299029        -0.332983         1.551219
 H        -0.810829        -0.530933        -0.158253
 H         0.167913        -1.924188         0.578168
 H         3.213785        -0.138869         1.754638
 H         4.409042        -0.311722        -0.659030
 H         3.543238        -1.852844        -0.318909
 H         1.600008        -0.925536        -3.155047
 H         3.457552         1.704995        -1.406264
 H         1.616631         1.746974        -1.929609
 H         1.139942         2.165525         1.469237
