19
Iteration:  3309
 C         0.194056        -0.685571         0.592233
 C         1.467454        -0.241554         0.170835
 C         2.930467        -0.194339         0.809293
 C         3.509176        -0.932247        -0.473608
 C         2.259071        -0.423769        -1.162593
 O         1.797398        -0.963460        -2.377598
 C         2.517316         1.088477        -1.153750
 C         2.160203         1.109941         0.268423
 O         1.578062         2.246941         0.860046
 H         0.369063        -1.394010         1.337048
 H        -0.511314         0.157765         0.699216
 H        -0.322298        -1.277414        -0.174626
 H         3.191961        -0.304163         1.859093
 H         4.594765        -0.783697        -0.773954
 H         3.478884        -2.057509        -0.358245
 H         1.879519        -1.926246        -2.357032
 H         3.462480         1.385480        -1.546471
 H         1.743362         1.590292        -1.665482
 H         1.303574         2.010574         1.756865
