19
Iteration:  4732charge 0 multiplicity 1
 C        -0.146694        -0.505465         0.431352
 C         1.346101        -0.136904         0.112827
 C         2.659481        -0.112494         0.948514
 C         3.370503        -1.039464        -0.115322
 C         2.350165        -0.504559        -1.054507
 O         2.070756        -1.331649        -2.305235
 C         2.550071         0.961359        -1.321764
 C         2.129179         1.149662         0.149762
 O         2.010170         2.393570         0.772103
 H        -0.614754        -1.083840        -0.398091
 H        -0.006992        -1.247278         1.284135
 H        -0.454950         0.411605         0.948390
 H         2.708282        -0.010386         2.067478
 H         4.295215        -0.767771        -0.457178
 H         3.340175        -2.160587         0.140596
 H         1.594862        -0.676428        -2.869071
 H         3.514228         1.133210        -1.663006
 H         1.722783         1.368727        -1.956165
 H         1.174927         2.864004         0.734702
