19
Iteration:   596
 C        -0.148362        -0.278632         0.276153
 C         1.337940        -0.089586        -0.052998
 C         2.628923        -0.180806         0.818494
 C         3.467009        -0.974824        -0.095745
 C         2.476934        -0.557599        -1.197705
 O         2.053113        -1.421665        -2.228107
 C         2.797399         1.043936        -1.322868
 C         2.136715         1.202107         0.243514
 O         1.577445         2.198572         1.004403
 H        -0.354536         0.437510         1.138379
 H        -0.528596         0.018090        -0.694366
 H        -0.385796        -1.289883         0.547923
 H         2.743120        -0.125806         1.884104
 H         4.534450        -0.694731        -0.128586
 H         3.442000        -2.021392         0.252778
 H         1.576804        -2.088787        -1.788706
 H         3.877800         1.279036        -1.489510
 H         2.167182         1.655169        -1.987499
 H         2.133904         2.986211         0.929374
