19
Iteration:  3727charge 0 multiplicity 1
 C         0.044150        -0.413724         0.601557
 C         1.388818        -0.228906         0.072962
 C         2.809106        -0.236854         0.829859
 C         3.494290        -0.924240        -0.348936
 C         2.294480        -0.412250        -1.273841
 O         1.897551        -1.174896        -2.360608
 C         2.497532         1.130590        -1.228068
 C         2.237388         1.012812         0.196413
 O         1.705518         2.077431         1.071600
 H        -0.335920         0.473780         1.136120
 H        -0.550247        -0.651427        -0.311121
 H        -0.152867        -1.203226         1.389988
 H         2.761115        -0.328128         1.941509
 H         4.604326        -0.583506        -0.632753
 H         3.476353        -2.019042        -0.227309
 H         1.945187        -0.790144        -3.241527
 H         3.439733         1.635540        -1.554370
 H         1.568649         1.571720        -1.575831
 H         2.061660         2.881841         0.617745
