19
Iteration:  1118
 C        -0.127560        -0.659994         0.348953
 C         1.255799        -0.140932         0.300580
 C         2.595915        -0.184034         0.940338
 C         3.390849        -1.063166        -0.079522
 C         2.316072        -0.520880        -1.027019
 O         2.179967        -1.060021        -2.340882
 C         2.528276         0.935656        -1.265546
 C         2.032905         1.194027         0.106158
 O         2.064745         2.452695         0.659685
 H        -0.928885        -0.458770         1.145092
 H        -0.740236        -0.532698        -0.619172
 H         0.006234        -1.685893         0.616503
 H         2.775494         0.001200         2.000976
 H         4.435913        -0.824300        -0.256118
 H         2.989211        -2.174090        -0.039778
 H         2.390745        -1.975234        -2.415336
 H         3.588913         1.269868        -1.507577
 H         2.015987         1.451003        -2.050990
 H         1.316756         2.506401         1.246033
