19
Iteration:  3164
 C         0.162915        -0.653523         0.575310
 C         1.512010        -0.188693         0.090309
 C         2.933519        -0.139908         0.800906
 C         3.536617        -0.913374        -0.382865
 C         2.356984        -0.369763        -1.177052
 O         1.693616        -1.105075        -2.261156
 C         2.556805         1.155043        -1.257310
 C         2.112645         1.092383         0.185998
 O         1.499541         2.056480         0.984422
 H        -0.421577        -0.966355        -0.296864
 H         0.337315        -1.420435         1.412143
 H        -0.278340         0.129490         1.211146
 H         3.160094        -0.019404         1.884115
 H         4.654703        -0.569177        -0.613745
 H         3.495125        -2.053388        -0.187993
 H         2.302642        -1.590222        -2.833826
 H         3.646793         1.408533        -1.483611
 H         1.931013         1.783267        -2.013242
 H         1.662195         2.857123         0.444069
