19
Iteration:  4452charge 0 multiplicity 1
 C        -0.121692        -0.647571         0.325823
 C         1.305290        -0.144513         0.073452
 C         2.663012        -0.041871         0.856984
 C         3.310080        -0.963181        -0.053926
 C         2.328764        -0.489928        -1.146115
 O         2.034767        -1.351040        -2.144993
 C         2.551321         1.027768        -1.399231
 C         2.118523         1.195644         0.153382
 O         2.167786         2.370579         0.878144
 H        -0.463583        -1.438275        -0.447827
 H        -0.439275        -1.018844         1.370848
 H        -0.552192         0.367759         0.392649
 H         2.741231        -0.290811         2.034719
 H         4.431629        -0.843306        -0.218274
 H         3.029280        -1.990164         0.089317
 H         1.141418        -1.231677        -2.462010
 H         3.591144         1.328133        -1.722615
 H         1.816679         1.366746        -2.026522
 H         1.280199         2.774308         0.652036
