19
Iteration:  4939
 C        -0.041660        -0.532454         0.461851
 C         1.370318        -0.135641         0.151417
 C         2.635266        -0.146011         0.894110
 C         3.385926        -1.002184        -0.115566
 C         2.313542        -0.474452        -1.081961
 O         2.026465        -1.310069        -2.168475
 C         2.592367         1.018968        -1.303137
 C         2.205135         1.126817         0.107409
 O         1.891636         2.374526         0.740275
 H        -0.844794         0.076636         0.048021
 H        -0.390491        -1.345518        -0.129109
 H        -0.337767        -0.791911         1.405432
 H         2.829914         0.114878         1.980203
 H         4.504945        -1.117076        -0.265280
 H         3.104829        -2.161460        -0.046337
 H         1.265183        -1.107538        -2.734805
 H         3.644909         1.192060        -1.548127
 H         1.845355         1.403541        -2.091075
 H         1.828154         3.016085        -0.014984
