19
Iteration:   240
 C        -0.032255        -0.479865         0.024086
 C         1.361292        -0.024505        -0.033539
 C         2.553367        -0.042470         0.983524
 C         3.330512        -0.984900         0.017814
 C         2.402292        -0.462437        -1.075124
 O         1.876530        -1.396294        -2.104356
 C         2.810111         1.008879        -1.269068
 C         2.161917         1.150942         0.122469
 O         1.843609         2.347331         0.835601
 H        -0.623257        -0.286424         0.884454
 H        -0.697385        -0.484430        -0.834905
 H         0.007733        -1.667254         0.024209
 H         2.496822        -0.168125         2.081217
 H         4.380505        -0.780146        -0.202368
 H         3.102068        -2.091150         0.331243
 H         2.530368        -2.078486        -2.360981
 H         3.863397         1.258192        -1.533293
 H         2.127176         1.483256        -1.994663
 H         1.899647         2.193485         1.776757
