19
Iteration:  3464charge 0 multiplicity 1
 C         0.076981        -0.833619         0.566760
 C         1.441077        -0.271759         0.118547
 C         2.861078        -0.214507         0.747439
 C         3.447391        -0.887641        -0.397770
 C         2.322748        -0.291395        -1.199339
 O         1.777689        -0.955313        -2.306579
 C         2.630745         1.126388        -1.295811
 C         2.120707         1.063533         0.216893
 O         1.672274         2.190708         0.994106
 H        -0.311279        -0.031422         1.133801
 H        -0.621136        -1.237150        -0.173914
 H         0.299140        -1.644908         1.284142
 H         3.156753        -0.310088         1.792825
 H         4.451748        -0.413119        -0.707652
 H         3.313794        -2.024927        -0.322708
 H         1.206692        -1.648509        -1.876354
 H         3.639167         1.364679        -1.539947
 H         2.058405         1.770606        -1.899584
 H         2.446777         2.695923         1.335209
