19
Iteration:  3397
 C         0.041639        -0.805789         0.529347
 C         1.348702        -0.187283         0.155264
 C         2.803564        -0.154167         0.772157
 C         3.431052        -0.833606        -0.430366
 C         2.208671        -0.368424        -1.246027
 O         1.992688        -1.199969        -2.275346
 C         2.398167         1.265663        -1.232266
 C         2.051992         1.050916         0.189265
 O         2.040534         2.193116         1.064801
 H        -0.250766        -0.435232         1.477334
 H        -0.730590        -0.723843        -0.228142
 H         0.018411        -1.876808         0.716600
 H         3.187636        -0.271031         1.829179
 H         4.413842        -0.339223        -0.790662
 H         3.518382        -1.959276        -0.349123
 H         1.457668        -0.879991        -3.002761
 H         3.323030         1.685650        -1.471399
 H         1.690767         1.685086        -1.868624
 H         1.104923         2.188519         1.325997
