19
Iteration:   148charge 0 multiplicity 1
 C        -0.081596        -0.259180         0.460360
 C         1.252541        -0.073072        -0.028838
 C         2.505843        -0.092558         0.856308
 C         3.239489        -1.095287         0.038092
 C         2.379729        -0.551021        -1.134548
 O         2.333005        -1.237691        -2.337112
 C         2.842004         0.969354        -1.217638
 C         2.058913         1.109861         0.065046
 O         1.638064         2.212740         0.789264
 H        -0.075826         0.361650         1.427786
 H        -0.959687        -0.161875        -0.261278
 H        -0.119864        -1.296861         0.851018
 H         2.622427         0.103862         1.902611
 H         4.356952        -1.133359        -0.210504
 H         2.873251        -2.090525         0.343491
 H         2.229560        -2.214355        -2.109975
 H         3.975307         1.041893        -1.236408
 H         2.432407         1.441377        -2.140211
 H         2.420439         2.823294         0.834404
