19
Iteration:   248charge 0 multiplicity 1
 C         0.002739        -0.551102         0.031352
 C         1.354950        -0.021707        -0.047450
 C         2.532164        -0.030176         0.950701
 C         3.293587        -1.031150        -0.020184
 C         2.375316        -0.480743        -1.069075
 O         1.893066        -1.348743        -2.021492
 C         2.777400         1.021504        -1.282013
 C         2.224584         1.236270         0.153377
 O         1.822918         2.299710         0.782135
 H        -0.462561        -0.262470         0.978189
 H        -0.569326        -0.162690        -0.919330
 H         0.186467        -1.578870         0.071975
 H         2.387858        -0.235248         2.009924
 H         4.392135        -1.156674        -0.024995
 H         2.896307        -2.074286         0.261463
 H         2.739144        -1.765293        -2.369866
 H         3.890247         1.227524        -1.484347
 H         2.051886         1.530440        -1.894252
 H         1.956597         2.128656         1.713232
