19
Iteration:  2048
 C         0.048385        -0.595970         0.590371
 C         1.421040        -0.254442         0.109828
 C         2.804198        -0.057733         0.915565
 C         3.582166        -0.828521        -0.234281
 C         2.298369        -0.495954        -1.173611
 O         2.069043        -1.351670        -2.280922
 C         2.356712         1.035702        -1.368621
 C         2.123919         1.134619         0.131903
 O         1.629729         2.277903         0.863966
 H        -0.252144         0.212529         1.248960
 H        -0.783101        -0.867068        -0.113489
 H         0.251794        -1.597143         1.107719
 H         3.001307         0.024606         1.973039
 H         4.620123        -0.445246        -0.277069
 H         3.638836        -1.951998         0.056932
 H         1.536675        -0.853931        -2.903867
 H         3.153114         1.496395        -1.963404
 H         1.397263         1.528233        -1.621024
 H         2.295720         2.942439         0.621306
