19
Iteration:  1676charge 0 multiplicity 1
 C         0.116885        -0.584500         0.551597
 C         1.476552        -0.103470         0.156457
 C         2.785751        -0.159647         0.943583
 C         3.482126        -0.908758        -0.196719
 C         2.306805        -0.510575        -1.132169
 O         1.918591        -1.312554        -2.298009
 C         2.493330         1.060404        -1.308817
 C         2.168437         1.205827         0.178376
 O         1.625511         2.334909         0.695445
 H        -0.062267        -0.071652         1.452361
 H        -0.695473        -0.458126        -0.145901
 H         0.149508        -1.677514         0.768332
 H         3.045823        -0.188163         1.987204
 H         4.415676        -0.422580        -0.395389
 H         3.709243        -2.023555        -0.084581
 H         2.524302        -2.040837        -2.518959
 H         3.411398         1.433662        -1.737489
 H         1.744286         1.530820        -1.921848
 H         0.747433         2.147195         1.036309
