19
Iteration:   537charge 0 multiplicity 1
 C        -0.234282        -0.372998         0.329812
 C         1.322338        -0.136663         0.142747
 C         2.581335        -0.127495         0.985972
 C         3.396194        -1.146509        -0.007756
 C         2.417461        -0.640325        -1.077670
 O         2.200958        -1.114792        -2.453512
 C         2.644469         0.981627        -1.235024
 C         2.156350         1.055969         0.216408
 O         1.874240         2.426616         0.733335
 H        -0.827897         0.158015         1.092635
 H        -0.801146        -0.253361        -0.540930
 H        -0.405664        -1.521140         0.565961
 H         2.732316        -0.019872         2.083088
 H         4.424637        -0.952030        -0.290609
 H         3.224048        -2.119645         0.416954
 H         2.390085        -2.099204        -2.521728
 H         3.560608         1.327317        -1.673943
 H         1.815735         1.345744        -1.887173
 H         0.953352         2.364306         1.130130
