19
Iteration:   630
 C        -0.079671        -0.430460         0.157612
 C         1.370852        -0.190460         0.110487
 C         2.646140        -0.069914         0.934225
 C         3.395975        -1.008543         0.014554
 C         2.371112        -0.493728        -1.092112
 O         2.051990        -1.173686        -2.228628
 C         2.622171         1.011486        -1.310961
 C         2.177856         1.054299         0.182136
 O         1.786421         2.270294         0.754782
 H        -0.700500         0.005703         0.965543
 H        -0.621352        -0.077156        -0.778548
 H        -0.354891        -1.462540         0.156132
 H         2.856918        -0.012642         1.999495
 H         4.484743        -0.909809        -0.111491
 H         3.149195        -2.027535         0.434886
 H         1.951866        -2.130497        -2.106763
 H         3.611774         1.467810        -1.629304
 H         1.795698         1.423217        -1.873479
 H         2.022888         2.282650         1.680295
