19
Iteration:  2258charge 0 multiplicity 1
 C         0.016907        -0.611259         0.588979
 C         1.341545        -0.213454         0.105217
 C         2.872446        -0.066113         0.868110
 C         3.691820        -0.759455        -0.274223
 C         2.356411        -0.473306        -1.147600
 O         1.926828        -1.367852        -2.280931
 C         2.530078         1.042929        -1.292404
 C         2.112978         1.097325         0.150984
 O         1.555635         2.268328         0.815002
 H        -0.427015         0.173581         1.086082
 H        -0.643448        -0.803183        -0.286914
 H         0.075854        -1.630027         0.986879
 H         3.016941        -0.028887         1.923048
 H         4.657160        -0.336229        -0.596114
 H         3.808515        -1.840560        -0.148208
 H         0.916207        -1.183604        -2.292744
 H         3.447930         1.603141        -1.537256
 H         1.824149         1.390752        -2.001068
 H         2.192188         2.611731         1.440186
