19
Iteration:  1516charge 0 multiplicity 1
 C         0.063377        -0.750194         0.450996
 C         1.383895        -0.154126         0.069906
 C         2.681411        -0.051960         0.837345
 C         3.500777        -0.883974        -0.127679
 C         2.320516        -0.460592        -1.175080
 O         1.846106        -1.344349        -2.184066
 C         2.630362         1.109466        -1.300377
 C         2.070426         1.152936         0.074444
 O         1.720558         2.363936         0.815608
 H        -0.141885        -0.145392         1.370165
 H        -0.766414        -0.595615        -0.248024
 H         0.020282        -1.707214         0.812597
 H         2.862881         0.000942         1.897644
 H         4.556802        -0.733924        -0.459584
 H         3.415623        -1.923235         0.028284
 H         2.400961        -2.148906        -2.051081
 H         3.687587         1.439290        -1.252310
 H         2.159801         1.758453        -1.996779
 H         2.570606         2.778304         0.945674
