19
Iteration:  4963
 C        -0.070654        -0.501026         0.393323
 C         1.352479        -0.113585         0.132163
 C         2.717821        -0.117660         0.922770
 C         3.428609        -0.920120        -0.072168
 C         2.361017        -0.581052        -1.076450
 O         1.932376        -1.291634        -2.232357
 C         2.632449         0.949276        -1.285712
 C         2.176012         1.078315         0.149073
 O         1.894844         2.359828         0.738748
 H        -0.799014         0.188787        -0.095829
 H        -0.531549        -1.421384         0.070987
 H        -0.211015        -0.424545         1.481323
 H         2.861598        -0.213955         2.033396
 H         4.432212        -0.842803        -0.450544
 H         3.418140        -2.028800         0.280537
 H         1.340679        -0.769386        -2.784413
 H         3.564634         1.411636        -1.515221
 H         1.772116         1.199072        -2.000258
 H         1.414429         2.847392         0.039810
