19
Iteration:  4220charge 0 multiplicity 1
 C         0.033467        -0.519656         0.334396
 C         1.391715        -0.133999         0.042413
 C         2.715876        -0.165620         0.953505
 C         3.340233        -1.082654        -0.111649
 C         2.284630        -0.395761        -1.146645
 O         1.766117        -1.222109        -2.228578
 C         2.739866         1.033507        -1.212868
 C         2.170103         1.106564         0.130760
 O         1.837400         2.284239         0.873638
 H        -0.708503         0.264776         0.265673
 H        -0.388201        -1.342808        -0.212155
 H        -0.046926        -0.893153         1.344086
 H         2.701361        -0.244138         1.996117
 H         4.425908        -1.011327        -0.432780
 H         3.183399        -2.113784         0.064653
 H         2.311290        -0.820634        -2.948739
 H         3.775680         1.236674        -1.629462
 H         2.183703         1.444328        -2.011531
 H         2.444133         2.947586         0.485325
