19
Iteration:    84charge 0 multiplicity 1
 C        -0.114272        -0.453470         0.069986
 C         1.376119        -0.199177         0.150705
 C         2.642991        -0.080356         1.053616
 C         3.296710        -1.074567         0.024958
 C         2.386154        -0.500349        -1.037081
 O         2.051606        -1.286551        -2.150861
 C         2.688061         0.982912        -1.303947
 C         2.149128         1.128852         0.160209
 O         1.793047         2.385583         0.666434
 H        -0.704954        -0.150312         0.985357
 H        -0.435901         0.109735        -0.886667
 H        -0.225955        -1.607879        -0.072340
 H         2.633352        -0.038339         2.141449
 H         4.389602        -1.217984        -0.116980
 H         2.893347        -2.085432         0.395886
 H         2.585305        -0.944444        -2.867501
 H         3.687476         1.386467        -1.623130
 H         1.892355         1.322830        -1.978107
 H         2.330493         2.566324         1.466969
