19
Iteration:  4703charge 0 multiplicity 1
 C        -0.066232        -0.595096         0.444224
 C         1.337643        -0.112903         0.134617
 C         2.610499        -0.103634         0.924112
 C         3.328424        -1.006602        -0.057196
 C         2.335864        -0.488382        -1.090845
 O         1.888844        -1.333904        -2.243081
 C         2.710335         1.042394        -1.344558
 C         2.158722         1.161968         0.057097
 O         1.969736         2.345154         0.787848
 H        -0.659797        -0.759261        -0.419060
 H         0.083069        -1.547975         0.898151
 H        -0.395593         0.168066         1.100588
 H         2.941203         0.095600         1.895932
 H         4.437290        -0.764385        -0.325520
 H         3.176861        -2.027924         0.238196
 H         2.435911        -0.918091        -2.959589
 H         3.832570         1.218134        -1.494526
 H         2.005432         1.438023        -2.119224
 H         1.081918         2.713260         0.774238
