19
Iteration:  3266charge 0 multiplicity 1
 C         0.082297        -0.880085         0.602853
 C         1.344069        -0.218181         0.087855
 C         2.725739        -0.059153         0.792684
 C         3.528609        -0.823098        -0.308168
 C         2.321454        -0.390304        -1.241893
 O         1.939661        -1.104312        -2.373403
 C         2.384588         1.148146        -1.300087
 C         2.079286         1.137974         0.159265
 O         1.903555         2.201172         1.000578
 H         0.243702        -1.899733         1.035008
 H        -0.228004        -0.237408         1.488137
 H        -0.681906        -0.926763        -0.230303
 H         2.817883         0.032822         1.882102
 H         4.535847        -0.552433        -0.690802
 H         3.644432        -1.937276        -0.153988
 H         1.051387        -1.514529        -2.332202
 H         3.437110         1.588564        -1.472848
 H         1.579875         1.569226        -1.861694
 H         2.177253         1.924880         1.893940
