19
Iteration:  3679charge 0 multiplicity 1
 C         0.005767        -0.630477         0.527223
 C         1.345463        -0.202744         0.172475
 C         2.723628        -0.117762         0.791677
 C         3.412743        -0.939486        -0.341518
 C         2.326249        -0.370805        -1.240001
 O         1.973928        -1.129542        -2.474017
 C         2.405327         1.109426        -1.213880
 C         2.143347         1.118850         0.240428
 O         1.928708         2.165509         1.089784
 H        -0.314541        -0.334099         1.527562
 H        -0.702860        -0.371648        -0.305253
 H        -0.002026        -1.731149         0.640479
 H         3.087127        -0.354002         1.771798
 H         4.583650        -0.686454        -0.730626
 H         3.349654        -2.006895        -0.034311
 H         1.600664        -1.978403        -2.120694
 H         3.342422         1.474759        -1.578432
 H         1.551903         1.489540        -1.805087
 H         2.371916         2.896171         0.658348
