19
Iteration:  2455
 C         0.026892        -0.738409         0.397628
 C         1.375775        -0.131565         0.253309
 C         2.766869        -0.143277         0.847830
 C         3.478150        -0.821980        -0.269069
 C         2.256625        -0.431695        -1.111243
 O         2.121563        -1.414487        -2.111214
 C         2.405432         1.096231        -1.316095
 C         2.067821         1.184264         0.163995
 O         1.761193         2.383448         0.732810
 H        -0.136272        -1.274418         1.312777
 H        -0.730268         0.022464         0.084078
 H        -0.096545        -1.601199        -0.339947
 H         3.142787        -0.180601         1.940707
 H         4.436753        -0.280810        -0.483838
 H         3.586597        -1.898889        -0.181996
 H         1.256193        -1.766038        -2.306655
 H         3.385197         1.584170        -1.634198
 H         1.531438         1.524800        -1.797305
 H         2.628383         2.777055         0.980710
