19
Iteration:   958charge 0 multiplicity 1
 C        -0.093884        -0.451033         0.404250
 C         1.331791        -0.190278         0.029585
 C         2.602222        -0.125047         0.819618
 C         3.399375        -0.885983        -0.018717
 C         2.373680        -0.526947        -1.183192
 O         2.086536        -1.326626        -2.344645
 C         2.633910         1.068560        -1.287303
 C         2.047989         1.174424         0.087965
 O         1.820080         2.273624         0.917805
 H        -0.334320         0.117791         1.335187
 H        -0.781604        -0.330310        -0.397437
 H        -0.078104        -1.550495         0.754944
 H         2.641569         0.053749         1.879279
 H         4.515170        -0.751185        -0.059429
 H         3.311460        -1.915675         0.316964
 H         2.089708        -2.250724        -2.080581
 H         3.637239         1.433525        -1.489705
 H         2.030079         1.542343        -2.050058
 H         2.577154         2.308829         1.494212
