19
Iteration:  2368
 C         0.134877        -0.740220         0.691854
 C         1.421843        -0.205268         0.171790
 C         2.696831        -0.170832         0.916072
 C         3.481448        -0.983288        -0.214698
 C         2.333305        -0.403438        -1.282480
 O         2.061645        -1.353324        -2.291260
 C         2.490080         1.143314        -1.378338
 C         2.096370         1.210373         0.189133
 O         1.606793         2.425048         0.695221
 H        -0.240767         0.050776         1.306814
 H        -0.696472        -0.899421        -0.045971
 H         0.453149        -1.637368         1.294964
 H         2.843866        -0.282514         2.046249
 H         4.593244        -0.767402        -0.275955
 H         3.435664        -2.061379        -0.244449
 H         1.344254        -1.048521        -2.802904
 H         3.584199         1.508934        -1.436097
 H         1.748602         1.739721        -1.897764
 H         2.037443         2.613991         1.570984
