19
Iteration:  4716charge 0 multiplicity 1
 C        -0.058930        -0.567467         0.476309
 C         1.304683        -0.136671         0.080454
 C         2.656080        -0.040639         0.863023
 C         3.386522        -0.975422        -0.069509
 C         2.270148        -0.579722        -1.124405
 O         1.984890        -1.286123        -2.243177
 C         2.626047         0.913730        -1.299342
 C         2.150981         1.163314         0.142151
 O         2.024696         2.387281         0.787950
 H        -0.624486        -0.692442        -0.489482
 H        -0.246320        -1.409582         1.160007
 H        -0.855577         0.133968         0.896882
 H         2.612883        -0.088040         1.947704
 H         4.542253        -0.888347        -0.301768
 H         3.229724        -1.975862         0.246433
 H         2.115918        -0.757914        -3.035854
 H         3.685239         1.380925        -1.598367
 H         1.987753         1.425606        -2.019829
 H         1.044520         2.497315         0.768707
