19
Iteration:  3913charge 0 multiplicity 1
 C        -0.014985        -0.387058         0.513597
 C         1.373516        -0.176654         0.063684
 C         2.848658        -0.202300         0.803196
 C         3.492372        -1.033338        -0.313969
 C         2.315889        -0.455461        -1.171571
 O         1.796364        -1.108958        -2.321424
 C         2.698322         1.052844        -1.282149
 C         2.200479         1.085655         0.257713
 O         1.628706         2.125790         0.968705
 H         0.079583        -0.888231         1.489181
 H        -0.507909         0.601798         0.392830
 H        -0.556969        -1.240179        -0.010927
 H         2.796594        -0.262560         1.858331
 H         4.361365        -0.738916        -0.736655
 H         3.334700        -2.053283        -0.086522
 H         2.443238        -1.716913        -2.694056
 H         3.767285         1.321712        -1.463105
 H         2.067108         1.757623        -1.775564
 H         2.089069         2.913293         1.335320
