19
Iteration:  3946
 C         0.020492        -0.304337         0.478389
 C         1.403956        -0.192830         0.150078
 C         2.754533        -0.264566         0.844095
 C         3.445583        -1.038996        -0.244663
 C         2.332071        -0.435596        -1.209540
 O         1.961867        -1.205080        -2.317395
 C         2.500905         1.115164        -1.318322
 C         2.165699         1.034515         0.240969
 O         1.729590         2.093957         0.953047
 H        -0.060084        -0.719413         1.517879
 H        -0.558549         0.618661         0.781287
 H        -0.660174        -0.857756        -0.241139
 H         2.817099        -0.157999         1.872619
 H         4.451778        -0.772174        -0.501278
 H         3.545686        -2.095575        -0.293354
 H         1.835013        -0.611101        -3.097579
 H         3.533866         1.414211        -1.718547
 H         1.768509         1.787245        -1.740813
 H         2.440185         2.765826         1.074207
