19
Iteration:  5000charge 0 multiplicity 1
 C        -0.113002        -0.445389         0.439846
 C         1.367514        -0.082264         0.059036
 C         2.703912        -0.162957         0.902344
 C         3.374352        -0.994592        -0.155989
 C         2.350617        -0.477194        -1.129496
 O         1.995068        -1.438414        -2.132909
 C         2.649649         1.018982        -1.378912
 C         2.136984         1.228503         0.095761
 O         1.914603         2.289239         0.861094
 H        -0.775848        -0.079594        -0.391546
 H        -0.145922        -1.543867         0.670679
 H        -0.573386         0.171503         1.355363
 H         3.043009        -0.110786         1.905615
 H         4.404542        -0.765819        -0.252086
 H         3.086025        -1.939193         0.062741
 H         1.883948        -0.830540        -2.880215
 H         3.654677         1.402174        -1.685173
 H         1.979110         1.269531        -2.160235
 H         0.919066         2.356101         0.851234
