19
Iteration:  4184
 C        -0.127442        -0.379637         0.447731
 C         1.380062        -0.116338         0.109344
 C         2.738163        -0.259020         0.922552
 C         3.441427        -1.079586        -0.187533
 C         2.269068        -0.483314        -1.164977
 O         1.913856        -1.183107        -2.348239
 C         2.644271         1.051956        -1.256671
 C         2.131381         1.101484         0.251400
 O         1.830818         2.242446         0.817042
 H        -0.720045         0.207875        -0.282800
 H        -0.389658        -1.469875         0.369906
 H        -0.264194         0.085810         1.486703
 H         2.849668        -0.252220         2.074680
 H         4.456163        -0.725817        -0.327557
 H         3.406495        -2.227690        -0.048962
 H         2.726416        -1.540259        -2.775926
 H         3.674471         1.336389        -1.657764
 H         1.704457         1.393467        -1.817415
 H         2.568250         2.785591         1.125952
