19
Iteration:  3751charge 0 multiplicity 1
 C         0.064687        -0.433413         0.566594
 C         1.443571        -0.265752         0.107616
 C         2.844932        -0.284494         0.843583
 C         3.480520        -0.941914        -0.384177
 C         2.315398        -0.465886        -1.216987
 O         1.882089        -1.095857        -2.366845
 C         2.582645         1.146123        -1.251802
 C         2.210160         1.044454         0.232997
 O         1.593092         2.124452         0.999523
 H        -0.405846         0.516921         0.883874
 H        -0.454411        -0.798146        -0.318684
 H        -0.185084        -1.063387         1.407340
 H         3.143162        -0.326551         1.918524
 H         4.496344        -0.641729        -0.669943
 H         3.374480        -2.061787        -0.263547
 H         0.929504        -0.981674        -2.489839
 H         3.667673         1.347781        -1.497737
 H         1.874372         1.733408        -1.849535
 H         2.308794         2.790514         1.094603
