19
Iteration:  1604charge 0 multiplicity 1
 C         0.037995        -0.678774         0.569813
 C         1.350215        -0.196896         0.072501
 C         2.700841        -0.120886         0.903152
 C         3.413009        -0.858736        -0.195682
 C         2.290464        -0.505757        -1.116705
 O         2.081166        -1.350241        -2.140060
 C         2.529840         1.046513        -1.414352
 C         2.154553         1.128395         0.134171
 O         1.765282         2.420061         0.737421
 H        -0.112031        -0.071994         1.611013
 H        -0.850659        -0.407642        -0.138804
 H         0.073689        -1.761852         0.627519
 H         2.595140        -0.316413         1.969264
 H         4.283616        -0.287016        -0.737418
 H         3.721335        -1.860354        -0.017764
 H         1.897068        -0.852347        -3.001883
 H         3.519862         1.546390        -1.804667
 H         1.726608         1.602599        -1.990350
 H         1.542072         2.093936         1.602471
