19
Iteration:  1582
 C        -0.017795        -0.782683         0.475306
 C         1.349277        -0.151624         0.240583
 C         2.740624        -0.040487         0.844153
 C         3.452611        -0.867618        -0.203714
 C         2.386037        -0.437146        -1.188373
 O         2.085607        -1.393213        -2.223992
 C         2.402495         1.067746        -1.216543
 C         2.056902         1.154707         0.162755
 O         1.870878         2.416133         0.660004
 H        -0.405299        -0.203959         1.450812
 H        -0.744425        -0.479560        -0.378055
 H        -0.015522        -1.852757         0.565469
 H         2.873539         0.140566         1.905384
 H         4.611912        -0.811161        -0.266988
 H         3.241034        -1.884182         0.056489
 H         1.262452        -1.187300        -2.668404
 H         3.455859         1.435357        -1.568916
 H         1.743929         1.478404        -1.996995
 H         1.898781         2.256789         1.660055
