19
Iteration:  1082charge 0 multiplicity 1
 C        -0.057663        -0.576622         0.396798
 C         1.347605        -0.219301        -0.012234
 C         2.521721        -0.061990         0.925184
 C         3.395441        -0.963928        -0.065184
 C         2.315075        -0.500764        -1.152499
 O         2.137590        -1.248120        -2.329084
 C         2.601871         1.096066        -1.199816
 C         2.167550         1.158872         0.208215
 O         1.878120         2.357462         0.721570
 H        -0.197545        -0.062586         1.321284
 H        -0.821973        -0.307868        -0.420194
 H        -0.125773        -1.658262         0.453085
 H         2.377421        -0.196992         1.990655
 H         4.459773        -1.115132        -0.050115
 H         3.012051        -2.047464         0.101019
 H         1.755945        -2.098236        -2.088156
 H         3.617900         1.235191        -1.479725
 H         1.780616         1.470999        -1.865529
 H         2.059760         2.426588         1.650718
