19
Iteration:  3591
 C         0.142538        -0.750419         0.536863
 C         1.353617        -0.160532         0.104415
 C         2.809895        -0.185892         0.843510
 C         3.436851        -0.997189        -0.334655
 C         2.369181        -0.359165        -1.247999
 O         1.790744        -1.020029        -2.301893
 C         2.517782         1.154671        -1.287772
 C         2.082372         1.161416         0.198073
 O         1.831419         2.226375         0.949291
 H         0.166400        -1.168147         1.570706
 H        -0.694048        -0.048287         0.338735
 H        -0.025582        -1.590562        -0.151679
 H         2.937753        -0.259631         1.970568
 H         4.472823        -0.860095        -0.610209
 H         3.415874        -2.053268        -0.290137
 H         1.890948        -1.973047        -2.181860
 H         3.462532         1.489239        -1.629009
 H         1.653077         1.511270        -1.868676
 H         1.872981         1.886477         1.850448
