19
Iteration:  4603charge 0 multiplicity 1
 C        -0.141659        -0.404470         0.431436
 C         1.327765        -0.159406         0.179781
 C         2.651020        -0.116234         0.854883
 C         3.410550        -0.916915        -0.069098
 C         2.353387        -0.530890        -1.123391
 O         2.112087        -1.359275        -2.320477
 C         2.483854         0.943750        -1.378455
 C         2.153202         1.166004         0.176254
 O         2.020026         2.337241         0.810032
 H        -0.804974         0.377970         0.206061
 H        -0.257088        -1.323959        -0.146166
 H        -0.297877        -0.661868         1.457592
 H         2.738107        -0.167721         2.028821
 H         4.506264        -0.597702        -0.016805
 H         3.311657        -2.009205         0.136992
 H         1.465341        -2.069935        -2.276935
 H         3.361045         1.439695        -1.878333
 H         1.565894         1.401276        -1.993991
 H         1.119389         2.753150         0.901172
