19
Iteration:  2563charge 0 multiplicity 1
 C         0.144301        -0.644394         0.661134
 C         1.461755        -0.233681         0.104542
 C         2.807646        -0.069811         0.850828
 C         3.505318        -0.902372        -0.159839
 C         2.426268        -0.487891        -1.147642
 O         1.923651        -1.186698        -2.315122
 C         2.534198         1.043455        -1.362121
 C         2.142044         1.175441         0.147674
 O         1.466667         2.318641         0.726285
 H        -0.375923         0.228544         0.865113
 H        -0.539018        -1.140249        -0.057782
 H         0.156386        -1.401155         1.439413
 H         2.931141        -0.213294         1.948406
 H         4.520858        -0.743795        -0.469647
 H         3.243786        -1.940840         0.078648
 H         1.787447        -2.120361        -2.260058
 H         3.560718         1.238328        -1.607249
 H         1.974039         1.468897        -2.159131
 H         1.887912         2.526092         1.609008
