19
Iteration:  4792
 C        -0.014067        -0.320864         0.484514
 C         1.381539        -0.153079         0.074356
 C         2.648535        -0.090127         0.773323
 C         3.469834        -1.010374        -0.119222
 C         2.336205        -0.539773        -1.176687
 O         1.996445        -1.448340        -2.201187
 C         2.654324         0.973806        -1.358683
 C         2.125994         1.207775         0.103001
 O         1.806578         2.253584         0.981275
 H        -0.636686        -0.651700        -0.332160
 H        -0.176790        -1.086614         1.208250
 H        -0.594182         0.568859         0.612240
 H         2.629632        -0.024743         1.888845
 H         4.458617        -0.510825        -0.482424
 H         3.466988        -2.033603         0.192862
 H         1.218564        -0.971872        -2.592323
 H         3.798688         1.163556        -1.539810
 H         2.082725         1.515423        -2.121092
 H         1.343599         2.895759         0.437584
