19
Iteration:  4263charge 0 multiplicity 1
 C        -0.036507        -0.628431         0.325961
 C         1.344292        -0.077527         0.123314
 C         2.663451        -0.112035         0.945036
 C         3.330453        -1.050487        -0.151240
 C         2.316788        -0.493398        -1.124659
 O         1.851057        -1.214744        -2.143240
 C         2.672119         1.011160        -1.362539
 C         2.159602         1.173356         0.152146
 O         1.949065         2.346884         0.819911
 H        -0.752295        -0.036111         0.919805
 H        -0.402321        -0.830337        -0.716250
 H         0.057651        -1.688119         0.723318
 H         2.485466        -0.175772         1.974014
 H         4.416262        -1.018108        -0.440686
 H         2.945266        -2.075661        -0.099576
 H         2.206447        -0.877362        -2.996471
 H         3.840811         1.274121        -1.456801
 H         2.097371         1.603250        -2.078232
 H         2.555752         2.415592         1.566134
