19
Iteration:  1505charge 0 multiplicity 1
 C         0.031951        -0.655514         0.549888
 C         1.414194        -0.218856         0.074955
 C         2.729021        -0.003614         0.793731
 C         3.437389        -0.977460        -0.255137
 C         2.360083        -0.494106        -1.149846
 O         1.897060        -1.319357        -2.150447
 C         2.645170         1.074341        -1.292356
 C         2.038963         1.236635         0.111189
 O         1.684270         2.302377         0.826329
 H        -0.476339        -0.112187         1.366813
 H        -0.604441        -0.435266        -0.322653
 H         0.051092        -1.661271         0.597785
 H         2.766189         0.057340         1.873855
 H         4.473426        -0.605308        -0.384618
 H         3.344028        -1.933479         0.127713
 H         2.746548        -1.855166        -2.405862
 H         3.743245         1.192651        -1.288915
 H         2.160543         1.579654        -2.091294
 H         2.257545         3.077743         0.835723
