19
Iteration:  4962charge 0 multiplicity 1
 C        -0.080645        -0.508196         0.397520
 C         1.347833        -0.115345         0.139836
 C         2.720822        -0.120131         0.924315
 C         3.424573        -0.926022        -0.068858
 C         2.363667        -0.579706        -1.077515
 O         1.935758        -1.287680        -2.228584
 C         2.634680         0.953381        -1.294889
 C         2.177891         1.076551         0.147941
 O         1.892851         2.362037         0.735193
 H        -0.786257         0.218296        -0.061469
 H        -0.495964        -1.438464         0.040415
 H        -0.195695        -0.397753         1.441173
 H         2.851304        -0.232663         2.049369
 H         4.446957        -0.833728        -0.478449
 H         3.424117        -2.053673         0.282184
 H         1.329036        -0.769065        -2.777663
 H         3.566910         1.434377        -1.539562
 H         1.769816         1.219468        -2.009178
 H         1.436166         2.863652         0.045775
