19
Iteration:   144charge 0 multiplicity 1
 C        -0.084146        -0.263638         0.502687
 C         1.262321        -0.091667        -0.039043
 C         2.482592        -0.093969         0.853917
 C         3.253436        -1.092817         0.023469
 C         2.359962        -0.531373        -1.134006
 O         2.301779        -1.233984        -2.318388
 C         2.881167         0.979935        -1.216644
 C         2.084802         1.103282         0.016613
 O         1.648151         2.181544         0.771007
 H        -0.228099         0.315749         1.417920
 H        -0.886077        -0.164739        -0.159646
 H        -0.227443        -1.284753         0.740867
 H         2.479343         0.143936         1.949918
 H         4.340495        -1.021310        -0.109587
 H         2.929003        -2.052862         0.352697
 H         2.349933        -2.148518        -2.089574
 H         3.938972         1.090289        -1.067521
 H         2.568775         1.541073        -2.127638
 H         2.310696         2.872869         0.864875
