19
Iteration:  3145charge 0 multiplicity 1
 C         0.160746        -0.638205         0.619699
 C         1.545687        -0.345059         0.121154
 C         2.832577        -0.132163         0.768302
 C         3.474451        -0.934179        -0.429211
 C         2.329055        -0.372246        -1.213365
 O         1.813085        -1.140067        -2.235897
 C         2.510168         1.222582        -1.288456
 C         2.181009         1.185809         0.239661
 O         1.519075         2.113387         0.948248
 H        -0.471652        -0.532631        -0.275708
 H         0.105390        -1.699887         1.051411
 H        -0.222842         0.031619         1.477030
 H         3.066437        -0.470057         1.786449
 H         4.391561        -0.849533        -0.880918
 H         3.530622        -1.982875        -0.100637
 H         2.533791        -1.739215        -2.556595
 H         3.486240         1.748405        -1.619898
 H         1.663614         1.610720        -1.872820
 H         1.842394         3.042874         0.895833
