19
Iteration:  2706charge 0 multiplicity 1
 C         0.179372        -0.670528         0.681201
 C         1.512293        -0.314764         0.131544
 C         2.785516        -0.126294         0.837033
 C         3.485469        -0.899508        -0.285244
 C         2.306486        -0.369226        -1.214979
 O         1.860132        -1.219221        -2.183324
 C         2.608060         1.150057        -1.339898
 C         2.098178         1.151495         0.158950
 O         1.499178         2.228118         0.705087
 H        -0.501263        -0.953713        -0.130571
 H         0.226550        -1.395506         1.596644
 H        -0.232275         0.372622         1.164179
 H         2.902277        -0.262483         1.897692
 H         4.507474        -0.524027        -0.558044
 H         3.334295        -1.921911         0.086307
 H         2.560182        -1.466489        -2.747181
 H         3.660783         1.580649        -1.724500
 H         1.918865         1.633190        -2.091857
 H         1.812671         2.310559         1.639518
