19
Iteration:  1127charge 0 multiplicity 1
 C        -0.142995        -0.684472         0.357291
 C         1.281398        -0.181078         0.226561
 C         2.655483        -0.051130         0.935557
 C         3.287974        -0.996993        -0.063886
 C         2.306137        -0.535984        -1.067362
 O         2.126569        -1.091819        -2.344518
 C         2.607478         0.952316        -1.248108
 C         2.036993         1.095469         0.113370
 O         2.076488         2.438811         0.707827
 H        -0.704458        -0.201517         1.166465
 H        -0.643867        -0.664594        -0.701741
 H        -0.116831        -1.747048         0.472197
 H         2.722540        -0.007770         2.001811
 H         4.269501        -0.907299        -0.475552
 H         3.284915        -2.092266         0.266872
 H         2.496173        -1.958410        -2.421533
 H         3.614141         1.314090        -1.146047
 H         1.912705         1.487156        -1.931065
 H         1.197373         2.633986         1.022082
