19
Iteration:  1337charge 0 multiplicity 1
 C         0.039456        -0.823936         0.392471
 C         1.325907        -0.115778         0.148378
 C         2.790503        -0.114288         0.956852
 C         3.417065        -0.998771        -0.180398
 C         2.295983        -0.480496        -1.072036
 O         1.837482        -1.140925        -2.221522
 C         2.742499         0.984899        -1.232639
 C         2.119636         1.143852         0.161271
 O         1.728919         2.491159         0.678563
 H        -0.438419        -0.240116         1.250807
 H        -0.644919        -0.826593        -0.539596
 H         0.104800        -1.810590         0.716847
 H         2.773711        -0.257277         2.015189
 H         4.477421        -0.886817        -0.267608
 H         3.239518        -2.114348         0.108512
 H         2.423674        -1.976063        -2.246138
 H         3.747565         1.399017        -1.485896
 H         2.000380         1.484695        -1.848241
 H         2.129979         3.064492         0.009385
