19
Iteration:  1377
 C        -0.020900        -0.665974         0.393256
 C         1.418685        -0.179931         0.080875
 C         2.729044        -0.043755         0.922085
 C         3.426684        -0.947931        -0.032378
 C         2.401737        -0.462586        -1.111955
 O         1.953767        -1.220359        -2.235844
 C         2.525984         1.013150        -1.369013
 C         2.070473         1.198710         0.091831
 O         1.800942         2.341986         0.774888
 H        -0.386207        -0.202546         1.286118
 H        -0.650926        -0.661413        -0.472353
 H         0.054600        -1.777371         0.714939
 H         2.798985        -0.064532         2.008289
 H         4.471443        -0.811655        -0.410660
 H         3.304630        -2.010761         0.208308
 H         1.607340        -2.027712        -1.884326
 H         3.405914         1.536914        -1.727382
 H         1.725176         1.127768        -2.183002
 H         2.630716         2.588609         1.245325
