19
Iteration:  4181charge 0 multiplicity 1
 C        -0.088631        -0.371620         0.449347
 C         1.376542        -0.133481         0.089574
 C         2.728594        -0.252429         0.921884
 C         3.410135        -1.055296        -0.182714
 C         2.273571        -0.497640        -1.127878
 O         1.925843        -1.186719        -2.363703
 C         2.625329         1.033390        -1.277480
 C         2.137162         1.081397         0.244903
 O         1.823805         2.256970         0.839312
 H        -0.684349         0.202191        -0.325561
 H        -0.434734        -1.440478         0.438674
 H        -0.170370         0.185702         1.403434
 H         2.876156        -0.245140         1.992731
 H         4.450787        -0.737978        -0.326273
 H         3.402585        -2.178635        -0.072470
 H         2.706296        -1.603385        -2.753604
 H         3.583536         1.384190        -1.625878
 H         1.741253         1.558887        -1.842796
 H         2.631429         2.666780         1.200713
