19
Iteration:  2108
 C         0.062678        -0.713948         0.540611
 C         1.456358        -0.175865         0.145963
 C         2.957232         0.068581         0.812994
 C         3.464050        -0.885608        -0.309031
 C         2.280582        -0.437119        -1.232991
 O         2.040786        -1.446451        -2.149620
 C         2.469351         1.169400        -1.302617
 C         2.156672         1.157208         0.182556
 O         1.564872         2.286566         0.774085
 H        -0.479606        -0.198670         1.407188
 H        -0.624091        -0.580721        -0.308208
 H         0.066982        -1.725791         0.983800
 H         3.110312        -0.201327         1.868896
 H         4.551094        -0.858964        -0.557566
 H         3.089728        -1.858175        -0.173054
 H         1.128397        -1.195038        -2.538593
 H         3.495896         1.522848        -1.576117
 H         1.549929         1.672194        -1.694865
 H         1.921164         2.360628         1.652931
