19
Iteration:  1445
 C        -0.044776        -0.347111         0.560181
 C         1.395401        -0.274768         0.119364
 C         2.776310        -0.108207         0.919289
 C         3.523629        -0.924579        -0.195777
 C         2.407687        -0.540548        -1.124782
 O         2.135279        -1.305999        -2.262855
 C         2.447686         1.036665        -1.298770
 C         2.071420         1.057351         0.130018
 O         1.628226         2.298661         0.704318
 H        -0.097513         0.111762         1.557761
 H        -0.707558         0.115845        -0.220145
 H        -0.492515        -1.433646         0.773534
 H         3.125001        -0.112399         1.940366
 H         4.536930        -0.586493        -0.367262
 H         3.611609        -2.085134        -0.030774
 H         1.238707        -1.204039        -2.585343
 H         3.456223         1.319092        -1.691264
 H         1.644530         1.271540        -2.084389
 H         2.200986         2.501354         1.435157
