19
Iteration:   407charge 0 multiplicity 1
 C        -0.020719        -0.290620         0.117410
 C         1.341301        -0.290492         0.036449
 C         2.555615        -0.153086         0.954255
 C         3.441444        -0.955870         0.000986
 C         2.397173        -0.554586        -1.099656
 O         2.011099        -1.297342        -2.183835
 C         2.691470         0.918797        -1.175365
 C         2.124576         1.100306         0.239701
 O         1.812230         2.337741         0.761636
 H        -0.389022         0.334344         0.957980
 H        -0.456359        -0.019368        -0.750378
 H        -0.522082        -1.298091         0.345535
 H         2.585264        -0.346334         2.047591
 H         4.547061        -0.796819        -0.222422
 H         3.277828        -1.960816         0.293350
 H         2.323984        -0.684065        -2.941436
 H         3.726572         1.216496        -1.183471
 H         2.033265         1.529079        -1.885312
 H         0.994356         2.647517         0.327981
