19
Iteration:   220charge 0 multiplicity 1
 C        -0.203132        -0.486854         0.075211
 C         1.301604        -0.194995         0.067165
 C         2.476348        -0.099288         0.921464
 C         3.521002        -0.945102         0.007291
 C         2.361255        -0.570490        -1.065163
 O         1.975223        -1.330242        -2.221861
 C         2.749207         0.991934        -1.248096
 C         2.145735         1.206743         0.124298
 O         1.904952         2.409564         0.813870
 H        -0.672102         0.159040         0.827677
 H        -0.521381        -0.231379        -0.904834
 H        -0.670152        -1.602090         0.226807
 H         2.711306        -0.069282         2.019867
 H         4.529185        -0.523299         0.020395
 H         3.583465        -1.980873         0.406487
 H         2.325258        -2.280730        -2.016117
 H         3.805001         1.131145        -1.281011
 H         2.219663         1.593459        -2.025638
 H         2.039376         2.288835         1.773499
