19
Iteration:  1946
 C         0.070034        -0.832445         0.508410
 C         1.390681        -0.191309         0.110357
 C         2.886331         0.107128         0.808328
 C         3.469832        -0.867241        -0.262545
 C         2.294053        -0.470723        -1.120109
 O         1.969203        -1.449929        -2.193456
 C         2.588629         1.178560        -1.248579
 C         2.066460         1.196127         0.131257
 O         1.624203         2.367246         0.759935
 H         0.010265        -0.540901         1.664197
 H        -0.848090        -0.522835        -0.047770
 H         0.292796        -1.919666         0.580079
 H         3.055553        -0.042094         1.917109
 H         4.444996        -0.710636        -0.838713
 H         3.339845        -1.889921         0.120182
 H         1.037476        -1.250981        -2.486205
 H         3.592792         1.531043        -1.548377
 H         1.722490         1.320406        -1.906332
 H         2.320208         2.482494         1.462612
