19
Iteration:  4628
 C        -0.132951        -0.493852         0.353015
 C         1.333680        -0.212613         0.090529
 C         2.736556        -0.069408         0.914365
 C         3.385652        -0.981547        -0.100674
 C         2.312427        -0.538833        -1.042999
 O         1.995941        -1.237187        -2.208585
 C         2.578639         0.960947        -1.362654
 C         2.141851         1.108235         0.141596
 O         1.964758         2.350638         0.812115
 H        -0.836207         0.377030         0.154616
 H        -0.405757        -1.421969        -0.226188
 H        -0.190425        -0.600714         1.467992
 H         3.001651         0.212454         1.884693
 H         4.396429        -0.628920        -0.451019
 H         3.367013        -2.012629         0.064028
 H         1.901691        -2.183473        -2.064887
 H         3.607135         1.382559        -1.605719
 H         1.841282         1.423416        -1.994535
 H         1.342919         2.932726         0.312487
