19
Iteration:  1760charge 0 multiplicity 1
 C         0.128292        -0.803497         0.504339
 C         1.405805        -0.174315         0.118162
 C         2.736031        -0.052851         0.868579
 C         3.494877        -0.916137        -0.249640
 C         2.353380        -0.478117        -1.184420
 O         2.044991        -1.409733        -2.131324
 C         2.363064         1.161011        -1.310300
 C         2.040431         1.189572         0.182155
 O         1.757075         2.401950         0.770297
 H        -0.326682        -0.483902         1.525606
 H        -0.641775        -0.527939        -0.195173
 H         0.340976        -1.863646         0.682396
 H         2.715759        -0.057288         1.948148
 H         4.540027        -0.631650        -0.569474
 H         3.437294        -1.943163         0.044444
 H         1.458475        -1.013861        -2.799099
 H         3.232493         1.712200        -1.713197
 H         1.320685         1.353086        -1.753000
 H         2.488161         3.041000         0.574464
