19
Iteration:   150
 C        -0.086653        -0.258009         0.445106
 C         1.252005        -0.065868        -0.027008
 C         2.518938        -0.091304         0.864575
 C         3.236168        -1.095148         0.038629
 C         2.394081        -0.560400        -1.133638
 O         2.346572        -1.241299        -2.346965
 C         2.822001         0.961535        -1.225709
 C         2.053401         1.120402         0.088565
 O         1.634927         2.233010         0.797872
 H        -0.041127         0.365248         1.360263
 H        -0.971837        -0.124332        -0.291218
 H        -0.087639        -1.360956         0.925280
 H         2.675704         0.063631         1.903597
 H         4.312552        -1.177650        -0.226396
 H         2.847151        -2.156776         0.340805
 H         2.172579        -2.223975        -2.131501
 H         3.960554         1.031114        -1.310007
 H         2.361106         1.381663        -2.115197
 H         2.443549         2.775594         0.825206
