19
Iteration:  4013charge 0 multiplicity 1
 C        -0.037802        -0.641535         0.417593
 C         1.290048        -0.163549         0.056478
 C         2.587573        -0.165249         0.836958
 C         3.349168        -1.012570        -0.249142
 C         2.343523        -0.364579        -1.205585
 O         1.879075        -1.107308        -2.268345
 C         2.607479         1.034002        -1.271982
 C         2.214385         1.132395         0.149790
 O         1.971208         2.273195         0.947856
 H         0.036872        -1.723041         0.805778
 H        -0.373447        -0.009874         1.323369
 H        -0.771103        -0.577734        -0.449755
 H         2.746022        -0.087041         1.965097
 H         4.462141        -0.722423        -0.278457
 H         3.345444        -2.048934         0.091069
 H         2.175134        -2.027640        -2.215916
 H         3.646503         1.285208        -1.638044
 H         1.892665         1.654597        -1.822833
 H         2.635810         2.357059         1.642153
