19
Iteration:  2474charge 0 multiplicity 1
 C        -0.052508        -0.718602         0.446451
 C         1.389988        -0.225613         0.232075
 C         2.771069         0.007579         0.906004
 C         3.506252        -0.817325        -0.216801
 C         2.317456        -0.458816        -1.164478
 O         2.159344        -1.423167        -2.144094
 C         2.354258         1.067273        -1.457941
 C         2.121281         1.162795         0.136435
 O         1.766190         2.334636         0.910402
 H        -0.369320        -1.071681         1.388877
 H        -0.779983         0.037352         0.101896
 H        -0.322079        -1.560090        -0.205351
 H         3.058651         0.198094         1.968495
 H         4.453471        -0.610487        -0.657983
 H         3.245806        -1.868528        -0.068734
 H         1.467869        -1.062236        -2.671126
 H         3.220301         1.275984        -2.000748
 H         1.593899         1.407492        -2.146788
 H         2.396362         3.028866         0.576934
