19
Iteration:   878
 C        -0.049243        -0.716372         0.329961
 C         1.301237        -0.210221         0.042062
 C         2.623391        -0.156393         0.975435
 C         3.434180        -1.051883        -0.026241
 C         2.411681        -0.572616        -0.997623
 O         2.005959        -0.958277        -2.264585
 C         2.617319         0.960565        -1.261600
 C         2.075844         1.159013         0.168542
 O         1.839424         2.405649         0.656849
 H        -0.218960        -0.176620         1.305565
 H        -0.882295        -0.349605        -0.305216
 H        -0.323914        -1.783383         0.492496
 H         2.810247        -0.078710         2.071949
 H         4.490632        -0.647509        -0.231061
 H         3.271083        -2.034578         0.338682
 H         1.850352        -1.900224        -2.432567
 H         3.690096         1.136346        -1.428390
 H         1.977063         1.288425        -2.096050
 H         2.494138         3.025635         0.351175
