19
Iteration:  4243
 C        -0.000573        -0.679786         0.308003
 C         1.350782        -0.068739         0.052574
 C         2.652710        -0.098684         0.874642
 C         3.317512        -1.101354        -0.091584
 C         2.318416        -0.515928        -1.200636
 O         1.750051        -1.232865        -2.185590
 C         2.784283         1.046825        -1.282626
 C         2.243735         1.205598         0.167080
 O         1.863326         2.335999         0.908037
 H        -0.624740         0.171520         0.544415
 H        -0.488456        -1.143461        -0.506977
 H        -0.096244        -1.349397         1.111205
 H         2.921216        -0.028004         1.862052
 H         4.442200        -1.033898        -0.068177
 H         3.093199        -2.054493         0.270245
 H         2.081698        -0.805846        -2.990182
 H         3.792532         1.275594        -1.745105
 H         2.147159         1.476650        -1.999290
 H         2.564313         2.956804         1.150464
