19
Iteration:  4176
 C        -0.019943        -0.348341         0.437750
 C         1.353917        -0.188886         0.075660
 C         2.691756        -0.230685         0.903195
 C         3.363087        -1.010366        -0.173176
 C         2.304864        -0.516949        -1.104097
 O         1.938119        -1.188393        -2.373227
 C         2.562562         1.005966        -1.297180
 C         2.183821         1.051221         0.204057
 O         1.810982         2.284110         0.887336
 H        -0.619778         0.128649        -0.320043
 H        -0.452371        -1.322281         0.607481
 H        -0.127397         0.286121         1.317281
 H         2.902518        -0.270983         1.984918
 H         4.432488        -0.765136        -0.411066
 H         3.332021        -2.079780        -0.074731
 H         2.722790        -1.702501        -2.673124
 H         3.557619         1.450921        -1.580376
 H         1.952271         1.699641        -1.821767
 H         2.680880         2.468041         1.300394
