19
Iteration:  2682
 C         0.130671        -0.708840         0.546204
 C         1.436159        -0.149225         0.110059
 C         2.868861         0.018505         0.811608
 C         3.614598        -0.916361        -0.176532
 C         2.324370        -0.522469        -1.159630
 O         1.781903        -1.217265        -2.226082
 C         2.526910         1.000355        -1.293237
 C         2.122808         1.157972         0.132535
 O         1.530780         2.241638         0.804374
 H        -0.403287        -0.620549        -0.376442
 H         0.223692        -1.813353         0.763830
 H        -0.439986        -0.252153         1.434756
 H         3.078918         0.202986         1.841395
 H         4.614212        -0.528932        -0.426565
 H         3.629807        -1.935582         0.259186
 H         2.293490        -0.962365        -3.055502
 H         3.454054         1.502698        -1.719097
 H         1.688041         1.413030        -1.899594
 H         2.206819         2.613566         1.384302
