19
Iteration:  1611
 C         0.063879        -0.638333         0.586368
 C         1.390082        -0.131726         0.059719
 C         2.662701        -0.095817         0.888063
 C         3.432277        -0.824434        -0.225172
 C         2.330631        -0.498375        -1.147281
 O         2.042003        -1.356217        -2.167840
 C         2.520921         1.001639        -1.353983
 C         2.159676         1.137861         0.114793
 O         1.730297         2.369239         0.755943
 H         0.082967        -0.195981         1.550671
 H        -0.820547        -0.316270         0.008245
 H        -0.102373        -1.689407         0.880828
 H         2.433902        -0.321349         1.919876
 H         4.382910        -0.391573        -0.446896
 H         3.780511        -1.879194         0.015887
 H         2.141268        -0.802631        -3.016970
 H         3.467779         1.250694        -1.817386
 H         1.790497         1.350938        -2.049236
 H         1.424720         1.949702         1.583443
