19
Iteration:   917
 C         0.060546        -0.720986         0.451644
 C         1.324542        -0.012324         0.038858
 C         2.565359        -0.093213         0.942724
 C         3.257534        -0.968763        -0.070224
 C         2.272183        -0.455785        -1.122317
 O         2.079633        -1.187160        -2.337187
 C         2.742165         1.028121        -1.255391
 C         2.218255         1.156085         0.166545
 O         1.748606         2.331506         0.688627
 H        -0.249508        -0.265451         1.370026
 H        -0.781989        -0.538488        -0.325484
 H         0.226724        -1.802683         0.522801
 H         2.897086        -0.289068         1.964944
 H         4.297326        -1.131061        -0.225544
 H         2.906106        -2.061812         0.209086
 H         1.743111        -2.041345        -2.072966
 H         3.830443         1.159893        -1.352343
 H         2.060942         1.547472        -1.992061
 H         2.188438         2.503573         1.553923
