19
Iteration:  2038charge 0 multiplicity 1
 C         0.035075        -0.644288         0.621311
 C         1.403556        -0.164853         0.185857
 C         2.790481        -0.095761         0.791372
 C         3.545276        -0.873457        -0.291781
 C         2.314926        -0.473564        -1.117232
 O         2.140181        -1.305546        -2.203900
 C         2.308462         1.051166        -1.295494
 C         2.132567         1.165569         0.148870
 O         1.663354         2.238029         0.784687
 H        -0.393856         0.009438         1.372084
 H        -0.636627        -0.633320        -0.287637
 H         0.059910        -1.659712         1.179921
 H         2.873507        -0.008813         1.870289
 H         4.553415        -0.530527        -0.630592
 H         3.483254        -2.008259        -0.133446
 H         1.754240        -0.885705        -3.010431
 H         3.231086         1.465824        -1.736962
 H         1.401516         1.263132        -1.900300
 H         2.114766         3.054502         0.587013
