19
Iteration:  1401charge 0 multiplicity 1
 C         0.004188        -0.502132         0.466671
 C         1.385391        -0.153984         0.012247
 C         2.652812        -0.098627         0.807707
 C         3.474853        -0.892633        -0.077781
 C         2.286908        -0.425818        -1.182537
 O         2.112345        -1.446288        -2.219351
 C         2.511399         1.065361        -1.395708
 C         2.108552         1.171784         0.091507
 O         1.788928         2.294734         0.879536
 H        -0.092365        -0.014015         1.412881
 H        -0.792258        -0.335004        -0.260178
 H        -0.075280        -1.558529         0.796892
 H         2.685469         0.131845         1.847511
 H         4.485822        -0.582509        -0.300182
 H         3.487576        -2.022735         0.164997
 H         1.374801        -1.951985        -1.886210
 H         3.333785         1.676319        -1.704261
 H         1.609883         1.449421        -1.957640
 H         2.138334         2.234744         1.758464
