19
Iteration:  3618
 C         0.113425        -0.834192         0.435349
 C         1.375429        -0.218707         0.134170
 C         2.880064        -0.057477         0.834022
 C         3.456386        -1.048687        -0.285250
 C         2.222020        -0.433547        -1.192503
 O         1.668924        -1.080033        -2.338709
 C         2.593273         1.164272        -1.257186
 C         2.189390         1.204595         0.240585
 O         1.780661         2.272226         0.958718
 H         0.189367        -1.168613         1.479992
 H        -0.775729        -0.182454         0.347293
 H        -0.010201        -1.761212        -0.203594
 H         3.051047        -0.043262         1.892156
 H         4.452863        -0.798319        -0.707099
 H         3.449461        -2.123344         0.079997
 H         2.370233        -0.973980        -2.996919
 H         3.717407         1.294119        -1.532045
 H         1.859796         1.646290        -1.920228
 H         2.184769         2.301707         1.841174
