19
Iteration:  1146
 C        -0.069666        -0.653873         0.349922
 C         1.305702        -0.179914        -0.003313
 C         2.570033        -0.082230         0.907592
 C         3.376490        -0.960087        -0.025557
 C         2.332368        -0.456824        -1.106828
 O         2.005106        -1.237269        -2.340450
 C         2.669868         1.008524        -1.255427
 C         2.171566         1.184889         0.176546
 O         1.965508         2.378706         0.852874
 H        -0.407951        -0.131015         1.225955
 H        -0.844268        -0.637604        -0.445926
 H        -0.192970        -1.744297         0.681907
 H         2.661230        -0.031238         1.986868
 H         4.509225        -0.889143        -0.036229
 H         3.121445        -1.994279         0.179644
 H         2.192855        -2.138807        -2.170197
 H         3.732098         1.209620        -1.534644
 H         1.927372         1.598436        -1.921125
 H         1.163278         2.751253         0.428473
