19
Iteration:   943charge 0 multiplicity 1
 C        -0.018200        -0.609861         0.480728
 C         1.322755        -0.044852        -0.076112
 C         2.491844        -0.063662         0.887323
 C         3.381987        -1.061500        -0.104732
 C         2.443074        -0.484796        -1.164680
 O         2.071759        -1.321445        -2.273414
 C         2.719246         1.113048        -1.374440
 C         2.057180         1.196842         0.079187
 O         1.780811         2.345182         0.929075
 H        -0.202867         0.105403         1.306706
 H        -0.868051        -0.393152        -0.188579
 H        -0.043435        -1.644107         0.733733
 H         2.468238        -0.188566         1.983618
 H         4.480446        -0.890088        -0.287261
 H         3.293018        -2.175841         0.016950
 H         1.972267        -2.165130        -1.862616
 H         3.794322         1.405159        -1.388154
 H         2.022405         1.415599        -2.161888
 H         2.324915         2.190633         1.730006
