19
Iteration:  2144charge 0 multiplicity 1
 C         0.029179        -0.795572         0.585714
 C         1.390855        -0.215598         0.130732
 C         2.756779        -0.041417         0.845915
 C         3.576483        -0.774637        -0.178852
 C         2.395654        -0.474599        -1.102960
 O         1.986727        -1.244297        -2.187625
 C         2.410972         0.950596        -1.394939
 C         2.054030         1.143673         0.077697
 O         1.721735         2.358832         0.777966
 H        -0.047882        -0.543379         1.665766
 H        -0.878256        -0.571790         0.043873
 H         0.112830        -1.853295         0.453981
 H         2.784816        -0.118304         1.912377
 H         4.556893        -0.406139        -0.488588
 H         3.694448        -1.888554        -0.077503
 H         1.483247        -0.666005        -2.825305
 H         3.225584         1.389257        -1.989044
 H         1.535170         1.409681        -1.932789
 H         2.487202         2.479218         1.344011
