19
Iteration:  4697
 C        -0.009354        -0.593756         0.428569
 C         1.313970        -0.106365         0.121111
 C         2.636053        -0.048698         0.977093
 C         3.340692        -1.065170        -0.091732
 C         2.349081        -0.491671        -1.155665
 O         1.872966        -1.310473        -2.193767
 C         2.705565         1.062484        -1.328301
 C         2.147969         1.143843         0.028494
 O         1.954400         2.346441         0.806807
 H        -0.826049        -0.560361        -0.398109
 H         0.192103        -1.622325         0.873743
 H        -0.567758         0.092269         1.193937
 H         2.757583         0.149123         2.099583
 H         4.379428        -0.799300        -0.157596
 H         3.253182        -2.185107         0.016196
 H         2.443868        -1.164752        -2.976118
 H         3.778317         1.119709        -1.557174
 H         2.140383         1.491127        -2.135433
 H         1.064381         2.667893         0.593624
