19
Iteration:  3993charge 0 multiplicity 1
 C        -0.091428        -0.537964         0.474684
 C         1.324981        -0.138835         0.068321
 C         2.763778        -0.232005         0.897302
 C         3.415824        -0.969870        -0.236971
 C         2.223811        -0.468464        -1.145842
 O         2.006141        -1.193211        -2.421188
 C         2.556700         1.112864        -1.270254
 C         2.089812         1.141701         0.152714
 O         1.973726         2.278694         0.975138
 H        -0.278929        -1.458352         1.087458
 H        -0.774326         0.210782         0.966431
 H        -0.453844        -0.657509        -0.550401
 H         2.822897        -0.293445         2.049475
 H         4.377033        -0.860863        -0.528866
 H         3.373282        -2.051764        -0.082580
 H         1.533337        -2.032849        -2.313129
 H         3.503794         1.573448        -1.445300
 H         1.789715         1.618218        -1.875153
 H         2.690956         2.274076         1.654761
