19
Iteration:   125charge 0 multiplicity 1
 C        -0.222661        -0.390544         0.508838
 C         1.273981        -0.083470        -0.031873
 C         2.437351        -0.157568         0.931843
 C         3.313766        -1.020930         0.046363
 C         2.503801        -0.498104        -1.159494
 O         2.096641        -1.247011        -2.287030
 C         3.036902         0.985293        -1.251900
 C         2.171525         1.119679         0.098803
 O         1.609739         2.249516         0.676408
 H        -0.101259         0.165080         1.513029
 H        -0.965088         0.091766        -0.195237
 H        -0.490371        -1.377128         0.712925
 H         2.273110        -0.322854         2.006767
 H         4.427745        -0.755886        -0.064358
 H         3.229540        -2.081454         0.081847
 H         2.690019        -2.019239        -2.362175
 H         4.147073         1.027388        -1.275323
 H         2.608758         1.530633        -2.141761
 H         2.350717         2.821348         0.884777
