19
Iteration:  1394
 C         0.028819        -0.580598         0.459379
 C         1.375777        -0.150875         0.019845
 C         2.593480        -0.052381         0.797937
 C         3.522770        -0.951852        -0.105267
 C         2.398029        -0.525510        -1.138955
 O         2.062053        -1.356217        -2.183353
 C         2.455742         1.112187        -1.424198
 C         2.117966         1.158015         0.062091
 O         1.793821         2.328365         0.876490
 H        -0.289654         0.088236         1.327649
 H        -0.768171        -0.277235        -0.273943
 H        -0.084796        -1.611408         0.739689
 H         2.544050         0.049962         1.910380
 H         4.596991        -0.720127        -0.134783
 H         3.327998        -1.992137         0.187558
 H         1.406807        -1.931547        -1.868779
 H         3.450685         1.535368        -1.767217
 H         1.570077         1.456658        -1.868421
 H         2.306399         2.312797         1.708080
