19
Iteration:  1175
 C         0.031336        -0.492149         0.344584
 C         1.386691        -0.039819        -0.040073
 C         2.591577        -0.167718         0.856695
 C         3.381153        -1.007414        -0.095908
 C         2.376071        -0.405469        -1.070377
 O         1.998589        -1.320160        -2.206214
 C         2.736104         1.051929        -1.341931
 C         2.124646         1.218984         0.093440
 O         1.717178         2.187842         0.936687
 H        -0.236495         0.031050         1.320661
 H        -0.714348        -0.332347        -0.381814
 H        -0.029734        -1.583969         0.497245
 H         2.721333        -0.122964         1.957990
 H         4.471137        -0.819476        -0.157300
 H         3.339097        -2.106242         0.019127
 H         1.420942        -1.979018        -1.720692
 H         3.795019         1.223702        -1.578249
 H         1.997482         1.410767        -1.983684
 H         1.911306         3.067518         0.493446
