19
Iteration:  4827
 C        -0.048811        -0.417830         0.401135
 C         1.398805        -0.135309         0.177255
 C         2.687192        -0.104041         0.843218
 C         3.388531        -1.051261        -0.108402
 C         2.299002        -0.540934        -1.119737
 O         2.001726        -1.329677        -2.158490
 C         2.566557         1.039890        -1.274517
 C         2.224950         1.142442         0.112444
 O         1.855021         2.308317         0.759657
 H        -0.431847        -0.453422        -0.627127
 H        -0.368428        -1.316813         0.885026
 H        -0.274838         0.273645         1.185387
 H         2.890287        -0.093984         1.911061
 H         4.533693        -0.977595        -0.401440
 H         3.406734        -2.140978         0.149781
 H         1.592081        -0.717184        -2.818521
 H         3.642389         1.117314        -1.766751
 H         1.841696         1.552112        -1.913601
 H         0.933040         2.470383         0.519746
