19
Iteration:  1881charge 0 multiplicity 1
 C         0.049520        -0.663531         0.578737
 C         1.421442        -0.369798         0.203706
 C         2.731457        -0.010207         0.799169
 C         3.610383        -0.737738        -0.263180
 C         2.325934        -0.497499        -1.139337
 O         1.991820        -1.404789        -2.229524
 C         2.419630         1.039201        -1.355314
 C         2.031620         1.185747         0.129895
 O         1.729162         2.305061         0.882692
 H        -0.378927         0.146219         1.292053
 H        -0.635063        -0.549328        -0.308507
 H        -0.172021        -1.715756         0.869187
 H         2.985699        -0.063272         1.884688
 H         4.593944        -0.224168        -0.453180
 H         3.620098        -1.765356         0.120604
 H         1.979597        -1.027278        -3.086230
 H         3.296259         1.619449        -1.696621
 H         1.521672         1.266938        -2.008649
 H         2.229660         3.112484         0.610915
