19
Iteration:  2818charge 0 multiplicity 1
 C         0.114081        -0.831093         0.484440
 C         1.464302        -0.212164         0.135984
 C         2.780457        -0.050343         0.838056
 C         3.492486        -0.778071        -0.303580
 C         2.320949        -0.415406        -1.182258
 O         1.845529        -1.190434        -2.200718
 C         2.556301         1.107098        -1.349074
 C         2.123543         1.129209         0.206864
 O         1.690185         2.245221         0.922068
 H         0.183924        -1.708123         1.205360
 H        -0.715244        -0.178567         0.833805
 H        -0.441527        -1.235121        -0.454477
 H         3.070842        -0.107661         1.888129
 H         4.558416        -0.599014        -0.564384
 H         3.565151        -1.891737        -0.198321
 H         1.254311        -1.966407        -2.084270
 H         3.659821         1.313080        -1.611600
 H         1.747485         1.586719        -1.932258
 H         1.974942         3.097688         0.528582
