19
Iteration:    67
 C        -0.155603        -0.524924        -0.074642
 C         1.283705        -0.021214         0.094808
 C         2.634461        -0.063195         0.934548
 C         3.374423        -1.042669         0.115828
 C         2.421306        -0.529231        -1.029380
 O         2.052386        -1.379332        -2.102660
 C         2.597639         0.966516        -1.282594
 C         2.192915         1.171165         0.136456
 O         1.879362         2.343499         0.804007
 H        -0.835334        -0.143971         0.642125
 H        -0.648354        -0.139956        -0.914723
 H        -0.231528        -1.575025        -0.039283
 H         2.982728         0.203363         1.963643
 H         4.463982        -0.867982         0.075077
 H         3.162651        -2.088512         0.294171
 H         1.782059        -0.835840        -2.879193
 H         3.590900         1.223584        -1.621131
 H         1.814429         1.397460        -1.931884
 H         2.487250         2.490175         1.569600
