19
Iteration:  3746
 C         0.060300        -0.420485         0.561139
 C         1.485723        -0.297291         0.088518
 C         2.816207        -0.279470         0.846439
 C         3.465129        -0.935572        -0.368304
 C         2.339265        -0.468053        -1.195878
 O         1.872709        -1.139764        -2.385962
 C         2.563791         1.179752        -1.262253
 C         2.195616         1.052843         0.287137
 O         1.626027         2.107550         0.995811
 H        -0.368678         0.532045         0.901408
 H        -0.662825        -0.755825        -0.256625
 H        -0.148746        -1.111811         1.453877
 H         3.184039        -0.367919         1.849343
 H         4.607090        -0.514949        -0.648754
 H         3.268183        -1.988478        -0.264606
 H         0.999217        -0.792803        -2.695762
 H         3.567415         1.371490        -1.573993
 H         1.924718         1.812882        -1.898590
 H         2.193936         2.907441         1.008397
