19
Iteration:  3265
 C         0.088178        -0.881118         0.602895
 C         1.334103        -0.223272         0.095909
 C         2.726173        -0.052278         0.791597
 C         3.519679        -0.827537        -0.308722
 C         2.322385        -0.391543        -1.235297
 O         1.944328        -1.110632        -2.374938
 C         2.385678         1.159291        -1.296525
 C         2.074170         1.142499         0.163590
 O         1.908596         2.201137         1.001125
 H         0.255096        -1.903429         0.968934
 H        -0.245602        -0.229555         1.470344
 H        -0.667861        -0.898911        -0.215673
 H         2.811748        -0.017368         1.872244
 H         4.539928        -0.550015        -0.723595
 H         3.667295        -1.929518        -0.164554
 H         1.072154        -1.509578        -2.356004
 H         3.402188         1.562167        -1.519645
 H         1.578791         1.553000        -1.894782
 H         2.196551         1.943387         1.886248
