19
Iteration:  3020
 C         0.225032        -0.842813         0.529440
 C         1.446403        -0.206970         0.143855
 C         2.888672        -0.091291         0.859835
 C         3.573854        -0.946979        -0.166436
 C         2.326528        -0.428455        -1.189972
 O         1.699312        -0.998311        -2.326714
 C         2.576316         1.155339        -1.326945
 C         2.044675         1.121284         0.096955
 O         1.589736         2.203782         0.902490
 H        -0.625860        -0.127567         0.647676
 H        -0.170698        -1.634811        -0.193500
 H         0.507441        -1.449653         1.395525
 H         3.113071         0.201081         1.884799
 H         4.539316        -0.672753        -0.503237
 H         3.359405        -1.966013         0.125521
 H         1.313998        -1.885569        -2.019663
 H         3.635035         1.354486        -1.660368
 H         1.984637         1.585341        -2.213870
 H         2.384139         2.767944         1.072572
