19
Iteration:  4545charge 0 multiplicity 1
 C        -0.018814        -0.430926         0.497415
 C         1.406854        -0.159671         0.108556
 C         2.649392        -0.068811         0.922023
 C         3.390920        -1.027848        -0.129394
 C         2.316286        -0.495058        -1.100931
 O         1.910205        -1.246067        -2.302604
 C         2.713312         0.958422        -1.354056
 C         2.240649         1.133860         0.149466
 O         1.770259         2.282329         0.803993
 H        -0.739162        -0.009592        -0.166157
 H        -0.420237        -1.393728         0.696935
 H        -0.095639         0.074731         1.471797
 H         2.684107         0.167212         2.025774
 H         4.434201        -0.830691        -0.407136
 H         3.157646        -2.153866         0.177844
 H         2.445023        -2.076805        -2.386646
 H         3.781772         1.022639        -1.616818
 H         1.934468         1.415831        -2.121496
 H         1.207649         2.857020         0.298275
