19
Iteration:  4804charge 0 multiplicity 1
 C        -0.103333        -0.368754         0.436205
 C         1.378939        -0.088476         0.085068
 C         2.670961        -0.046018         0.975588
 C         3.487802        -0.914838        -0.172992
 C         2.365327        -0.543138        -1.134701
 O         1.951089        -1.410840        -2.201479
 C         2.675170         1.008463        -1.375272
 C         2.155334         1.126604         0.058205
 O         1.824097         2.182538         0.894365
 H        -0.654572        -0.709317        -0.426482
 H        -0.195336        -1.028230         1.272632
 H        -0.298542         0.527505         0.992538
 H         2.702368        -0.105895         2.099666
 H         4.638370        -1.040879        -0.377225
 H         3.259513        -1.967852         0.002500
 H         1.290252        -0.973145        -2.752438
 H         3.808026         1.187021        -1.689352
 H         2.009658         1.445790        -2.117585
 H         1.141590         2.792909         0.561592
