19
Iteration:  4472charge 0 multiplicity 1
 C        -0.065151        -0.561849         0.316845
 C         1.311781        -0.062736         0.114118
 C         2.577651        -0.089785         0.915460
 C         3.413032        -1.026058        -0.112965
 C         2.264218        -0.577993        -1.103973
 O         1.962944        -1.376871        -2.184190
 C         2.608657         1.000045        -1.321487
 C         2.159363         1.216154         0.110919
 O         2.092966         2.365581         0.840371
 H        -0.216249        -1.350994        -0.455729
 H        -0.024040        -1.272707         1.221788
 H        -0.971315         0.057978         0.530650
 H         2.732173         0.483458         1.953721
 H         4.461889        -0.734536        -0.314103
 H         3.303241        -2.052816        -0.013545
 H         1.537579        -0.831316        -2.874858
 H         3.604385         1.383135        -1.449422
 H         1.844306         1.415127        -1.914545
 H         1.270835         2.875525         0.906685
