19
Iteration:   742
 C        -0.152124        -0.487419         0.439829
 C         1.303165        -0.096841         0.137210
 C         2.652287        -0.149072         0.927526
 C         3.379175        -1.047530        -0.043699
 C         2.410255        -0.490758        -1.174203
 O         2.109596        -1.146349        -2.358102
 C         2.746865         1.034942        -1.268011
 C         2.231828         1.114268         0.164565
 O         1.664043         2.218980         0.751742
 H        -0.495855         0.085298         1.287579
 H        -0.818545        -0.300567        -0.493097
 H        -0.082268        -1.509398         0.730848
 H         2.662928        -0.210509         2.008763
 H         4.453758        -0.983715         0.050285
 H         3.096849        -2.153890         0.097250
 H         1.706496        -2.043683        -2.114842
 H         3.805279         1.418899        -1.398868
 H         2.093019         1.469771        -2.062104
 H         2.004267         3.109082         0.502803
