19
Iteration:  1375
 C        -0.011448        -0.678318         0.383076
 C         1.422149        -0.173233         0.100218
 C         2.735309        -0.045490         0.922402
 C         3.422114        -0.950728        -0.034168
 C         2.378731        -0.454104        -1.107082
 O         1.948748        -1.212993        -2.244373
 C         2.539987         0.999945        -1.368286
 C         2.068691         1.180516         0.088711
 O         1.801746         2.347871         0.769926
 H        -0.436627        -0.175921         1.281558
 H        -0.683331        -0.645376        -0.475635
 H         0.081112        -1.813458         0.717487
 H         2.825377        -0.022342         2.030561
 H         4.487896        -0.784754        -0.400305
 H         3.291561        -1.968094         0.217615
 H         1.644927        -2.034254        -1.888921
 H         3.459750         1.541653        -1.679620
 H         1.710897         1.133235        -2.123607
 H         2.601442         2.650635         1.199100
