19
Iteration:   269charge 0 multiplicity 1
 C        -0.044849        -0.580411         0.128364
 C         1.355622        -0.094979         0.023159
 C         2.569574        -0.128541         0.994457
 C         3.216377        -1.204134         0.082473
 C         2.466036        -0.452458        -1.080351
 O         1.962787        -1.320133        -2.127708
 C         2.809028         1.085697        -1.313166
 C         2.170917         1.235660         0.124314
 O         1.776851         2.432799         0.731820
 H        -0.500884        -0.491240         1.136836
 H        -0.734726        -0.194393        -0.726016
 H         0.017676        -1.637116        -0.005892
 H         2.684874        -0.055934         2.080634
 H         4.330622        -1.270731         0.033563
 H         2.825214        -2.222076         0.252497
 H         2.433936        -1.171509        -2.914987
 H         3.896274         1.356476        -1.467011
 H         2.040784         1.455674        -1.969782
 H         2.314412         2.676316         1.516658
