19
Iteration:  2125
 C         0.231033        -0.705433         0.532997
 C         1.484379        -0.180781         0.176098
 C         2.746050        -0.098161         0.874796
 C         3.490937        -0.902160        -0.264180
 C         2.299661        -0.455502        -1.137686
 O         2.006132        -1.411177        -2.224868
 C         2.386635         1.132518        -1.335259
 C         2.069910         1.176157         0.127956
 O         1.634690         2.375448         0.794387
 H        -0.131812        -0.281884         1.431717
 H        -0.448654        -0.436685        -0.313506
 H         0.167320        -1.823394         0.617999
 H         3.051544         0.054519         1.931426
 H         4.487110        -0.594994        -0.628887
 H         3.589735        -1.942940         0.184170
 H         1.244757        -1.030744        -2.789698
 H         3.318086         1.564243        -1.698294
 H         1.620909         1.440718        -2.077204
 H         2.000847         2.591392         1.643542
