19
Iteration:  1241
 C        -0.068603        -0.398224         0.399328
 C         1.354445        -0.287680         0.131686
 C         2.669564        -0.182503         0.921272
 C         3.462028        -0.883085        -0.111105
 C         2.346808        -0.503307        -1.107668
 O         2.133798        -1.339888        -2.209922
 C         2.493146         1.067815        -1.278308
 C         2.193944         1.105875         0.178290
 O         1.823375         2.314862         0.672889
 H        -0.218867         0.042837         1.411013
 H        -0.678973         0.067422        -0.344277
 H        -0.569585        -1.355083         0.533747
 H         2.659719        -0.432914         1.977966
 H         4.510841        -0.660441        -0.396327
 H         3.400861        -1.935626        -0.183891
 H         1.643674        -0.844057        -2.892039
 H         3.265522         1.586681        -1.873828
 H         1.539053         1.320406        -1.636888
 H         1.391727         2.150059         1.505193
