19
Iteration:  1192charge 0 multiplicity 1
 C        -0.057617        -0.427429         0.341802
 C         1.376154        -0.179955         0.075425
 C         2.742307        -0.008875         0.897712
 C         3.413487        -0.982800        -0.130899
 C         2.398957        -0.532773        -1.201899
 O         2.013929        -1.307230        -2.213958
 C         2.698912         1.061138        -1.326339
 C         2.177590         1.114691         0.160753
 O         1.634842         2.207838         0.896655
 H        -0.422419        -0.033447         1.287783
 H        -0.758558        -0.088928        -0.550741
 H        -0.420551        -1.497067         0.482978
 H         2.738534         0.083468         1.977933
 H         4.484124        -0.956340        -0.385099
 H         3.255936        -2.047688         0.306909
 H         1.163342        -1.757378        -2.074431
 H         3.764941         1.359318        -1.398038
 H         2.146572         1.633069        -2.160877
 H         2.330986         2.933928         0.903058
