19
Iteration:  1911charge 0 multiplicity 1
 C         0.111668        -0.725216         0.460657
 C         1.419981        -0.163468         0.250140
 C         2.815401        -0.074065         0.928248
 C         3.535280        -0.832769        -0.209942
 C         2.341913        -0.426108        -1.052429
 O         1.984754        -1.359291        -2.157152
 C         2.330002         1.070809        -1.429846
 C         2.095599         1.171627         0.050172
 O         1.707359         2.245631         0.791718
 H        -0.443158        -0.238519         1.374347
 H        -0.548908        -0.661077        -0.451967
 H         0.118754        -1.772263         0.658878
 H         3.166671         0.094899         1.951516
 H         4.552454        -0.416400        -0.480701
 H         3.590469        -1.879882        -0.095717
 H         1.503638        -0.872766        -2.895394
 H         3.038099         1.767735        -1.933989
 H         1.395564         1.172743        -1.968505
 H         2.412307         2.937256         0.844821
