19
Iteration:   168charge 0 multiplicity 1
 C        -0.160446        -0.313748         0.411274
 C         1.320585        -0.112629         0.046319
 C         2.573668        -0.120002         0.978104
 C         3.251426        -1.170944         0.026955
 C         2.416506        -0.576234        -1.146937
 O         2.416429        -1.260553        -2.385769
 C         2.643663         0.930077        -1.329055
 C         2.191945         1.156933         0.145547
 O         1.680513         2.388351         0.797557
 H        -0.535496         0.434410         1.177343
 H        -0.722847        -0.302214        -0.527264
 H        -0.491812        -1.202741         0.716945
 H         2.271734        -0.245257         2.025428
 H         4.378717        -1.154852         0.001292
 H         2.854776        -2.092216         0.260774
 H         1.781009        -2.049945        -2.314006
 H         3.577689         1.383248        -1.664481
 H         1.819581         1.301584        -1.998237
 H         2.341889         2.936156         1.250607
