19
Iteration:  3372charge 0 multiplicity 1
 C         0.051917        -0.729602         0.604857
 C         1.407865        -0.245961         0.051696
 C         2.685744        -0.158575         0.781215
 C         3.552109        -0.753702        -0.378336
 C         2.276194        -0.418559        -1.266118
 O         1.867981        -1.267148        -2.352727
 C         2.440764         1.184446        -1.317761
 C         2.125716         1.105290         0.210346
 O         1.942126         2.247062         1.161780
 H         0.134414        -0.717596         1.737431
 H        -0.889108        -0.192548         0.260976
 H        -0.217695        -1.763755         0.372101
 H         2.690709        -0.468574         1.802055
 H         4.434584        -0.138649        -0.658640
 H         3.696170        -1.814260        -0.395228
 H         2.183560        -0.854477        -3.190284
 H         3.361448         1.537113        -1.848854
 H         1.563567         1.656434        -1.890719
 H         1.260505         1.849235         1.751857
