19
Iteration:  2921
 C         0.016329        -0.633843         0.741627
 C         1.373575        -0.275947         0.119632
 C         2.681410        -0.096086         0.772008
 C         3.540404        -0.709881        -0.267698
 C         2.299248        -0.486965        -1.237033
 O         2.138911        -1.232847        -2.398732
 C         2.292983         1.087281        -1.461386
 C         2.030409         1.102576         0.095508
 O         1.850811         2.231077         1.035501
 H         0.061892        -0.488929         1.872690
 H        -0.805883         0.036073         0.351568
 H        -0.206607        -1.717758         0.656861
 H         2.926367        -0.100806         1.888289
 H         4.318451        -0.173009        -0.679373
 H         3.546822        -1.727874        -0.048727
 H         2.159280        -2.204563        -2.244477
 H         3.182919         1.660573        -1.834456
 H         1.368273         1.497430        -1.936885
 H         2.461281         1.975801         1.735271
