19
Iteration:  4406charge 0 multiplicity 1
 C        -0.102072        -0.455838         0.409207
 C         1.362660        -0.181453         0.046996
 C         2.673082        -0.139681         0.940494
 C         3.449920        -1.001794        -0.149184
 C         2.339900        -0.499729        -1.131806
 O         1.964748        -1.324298        -2.265751
 C         2.680371         0.953886        -1.281183
 C         2.137931         1.148516         0.095537
 O         1.888687         2.370367         0.890429
 H        -0.382157        -1.507144         0.141867
 H        -0.155177        -0.327088         1.532690
 H        -0.785626         0.343852         0.041199
 H         2.693294        -0.070656         2.050680
 H         4.496554        -0.772857        -0.430243
 H         3.287148        -2.010550         0.092937
 H         0.992775        -1.380738        -2.237503
 H         3.701379         1.219492        -1.509635
 H         2.007022         1.386510        -1.957867
 H         1.657499         3.061778         0.233753
