19
Iteration:  1533
 C         0.072454        -0.768706         0.464179
 C         1.376393        -0.118383         0.050523
 C         2.649470        -0.051188         0.921029
 C         3.437460        -0.841756        -0.139935
 C         2.350270        -0.480617        -1.121563
 O         1.902397        -1.275738        -2.220231
 C         2.584604         1.073727        -1.374551
 C         2.119733         1.173599         0.167058
 O         1.808750         2.343285         0.752676
 H        -0.515063        -0.400785         1.310995
 H        -0.639091        -0.772578        -0.409697
 H         0.400016        -1.884145         0.508370
 H         2.632803        -0.098458         2.032294
 H         4.419812        -0.425062        -0.277038
 H         3.521100        -1.963563         0.162591
 H         1.671879        -2.164242        -1.802560
 H         3.524365         1.368660        -1.892376
 H         1.684879         1.348989        -1.983119
 H         2.491558         2.653303         1.335412
