19
Iteration:  1796
 C         0.080420        -0.738564         0.666204
 C         1.409959        -0.225318         0.155931
 C         2.739342         0.093876         0.893315
 C         3.518379        -0.858268        -0.250375
 C         2.349971        -0.550342        -1.132282
 O         1.908317        -1.281630        -2.260229
 C         2.613401         0.969194        -1.363812
 C         2.113902         1.151720         0.115622
 O         1.585749         2.330967         0.733563
 H        -0.025058        -0.391776         1.669656
 H        -0.803304        -0.566901         0.062193
 H         0.116468        -1.916546         0.632746
 H         2.884958         0.044170         1.987497
 H         4.393657        -0.399826        -0.690247
 H         3.846670        -1.891522         0.105175
 H         1.944863        -0.607402        -2.978449
 H         3.568434         1.351532        -1.784392
 H         1.836251         1.471097        -2.036136
 H         2.075000         2.578741         1.550654
