19
Iteration:   961charge 0 multiplicity 1
 C        -0.111224        -0.443905         0.410553
 C         1.357744        -0.195061         0.054367
 C         2.606410        -0.086911         0.822317
 C         3.398278        -0.884125        -0.037045
 C         2.360595        -0.532496        -1.180008
 O         2.098389        -1.306450        -2.344691
 C         2.615035         1.052956        -1.289270
 C         2.058691         1.129937         0.111444
 O         1.822328         2.258420         0.902611
 H        -0.368144         0.169802         1.257665
 H        -0.812678        -0.283341        -0.515235
 H        -0.133232        -1.520560         0.682235
 H         2.581818         0.115413         1.909984
 H         4.439619        -0.693589        -0.048429
 H         3.439693        -1.995779         0.290738
 H         2.128687        -2.220959        -2.071713
 H         3.679842         1.308123        -1.490159
 H         1.914226         1.594196        -2.011895
 H         2.628536         2.383255         1.463656
