19
Iteration:  4982
 C        -0.037550        -0.438992         0.417565
 C         1.381159        -0.224711         0.149488
 C         2.642594        -0.031544         0.886850
 C         3.423400        -0.991236        -0.101172
 C         2.293376        -0.546728        -1.134329
 O         1.944385        -1.367688        -2.205985
 C         2.634139         0.981584        -1.321326
 C         2.175107         1.115003         0.121186
 O         1.898795         2.349617         0.819011
 H        -0.657223         0.119235        -0.288816
 H        -0.149727        -1.519232         0.169754
 H        -0.209947        -0.059515         1.350949
 H         2.641767         0.070124         2.033207
 H         4.532671        -0.695602        -0.381840
 H         3.469610        -2.147249         0.130668
 H         1.610761        -0.853449        -2.954110
 H         3.722941         1.116502        -1.598880
 H         2.029779         1.663283        -1.975879
 H         1.037194         2.796318         0.606788
