19
Iteration:  3094
 C        -0.055365        -0.792375         0.630030
 C         1.332935        -0.351111         0.092393
 C         2.790392        -0.047050         0.777162
 C         3.550533        -0.708870        -0.298510
 C         2.264000        -0.461291        -1.188684
 O         2.078691        -1.131736        -2.352526
 C         2.250592         1.073367        -1.371706
 C         2.027207         1.126056         0.155213
 O         1.938221         2.262954         0.995783
 H        -0.750870         0.031972         0.487734
 H        -0.478958        -1.705798         0.354517
 H         0.154779        -0.967572         1.659227
 H         3.053261        -0.042599         1.831467
 H         4.635584        -0.315462        -0.663757
 H         3.652518        -1.818407        -0.273182
 H         2.089762        -2.079068        -2.205341
 H         3.102360         1.590199        -1.760807
 H         1.382345         1.450800        -1.856065
 H         2.622977         2.270355         1.687872
