19
Iteration:   503charge 0 multiplicity 1
 C        -0.085875        -0.582970         0.338033
 C         1.219543        -0.149589        -0.046243
 C         2.446940        -0.156363         0.974743
 C         3.240677        -1.046525        -0.067489
 C         2.331490        -0.456196        -1.104322
 O         2.127715        -1.216558        -2.190006
 C         2.812510         1.081648        -1.255684
 C         2.162415         1.160564         0.118961
 O         1.906152         2.381310         0.718170
 H        -0.401807        -0.204961         1.305960
 H        -0.787423        -0.296979        -0.484207
 H        -0.042568        -1.739398         0.399627
 H         2.299843        -0.195023         2.060149
 H         4.289342        -1.009452        -0.351739
 H         3.041263        -2.112865         0.171610
 H         2.931711        -1.837073        -2.278169
 H         3.903732         1.153122        -1.413216
 H         2.175516         1.658605        -1.918032
 H         2.173402         2.325021         1.665006
