19
Iteration:  1578
 C        -0.010743        -0.791789         0.459669
 C         1.321671        -0.187297         0.263847
 C         2.782913         0.009858         0.848988
 C         3.435648        -0.887642        -0.173700
 C         2.424969        -0.460815        -1.197182
 O         2.082446        -1.363472        -2.236199
 C         2.394542         1.046348        -1.250932
 C         2.032472         1.162967         0.159085
 O         1.889880         2.432859         0.670586
 H        -0.433756        -0.175164         1.271160
 H        -0.708001        -0.459492        -0.376584
 H         0.080008        -1.911553         0.475256
 H         2.815788         0.096259         1.944415
 H         4.483939        -0.776161        -0.432250
 H         3.129054        -1.954609         0.179533
 H         1.123487        -1.272502        -2.506711
 H         3.404574         1.543358        -1.395176
 H         1.636120         1.450325        -1.904797
 H         2.004691         2.225011         1.582111
