19
Iteration:  3620
 C         0.114056        -0.839720         0.444723
 C         1.366901        -0.191440         0.115670
 C         2.872216        -0.051757         0.847736
 C         3.463327        -1.049514        -0.282862
 C         2.236792        -0.426057        -1.181589
 O         1.666158        -1.095271        -2.343727
 C         2.588934         1.162046        -1.237001
 C         2.183573         1.177902         0.227774
 O         1.781902         2.274447         0.947686
 H         0.096827        -1.177953         1.516280
 H        -0.758648        -0.214875         0.330586
 H         0.033849        -1.702784        -0.227326
 H         3.126985        -0.101960         1.933946
 H         4.505592        -0.709853        -0.785770
 H         3.420757        -2.192495         0.045917
 H         2.314166        -0.844503        -3.020811
 H         3.689185         1.297200        -1.493304
 H         1.857565         1.678427        -1.878939
 H         2.276877         2.304337         1.813893
