19
Iteration:   127charge 0 multiplicity 1
 C        -0.221831        -0.387293         0.524371
 C         1.273157        -0.084211        -0.031128
 C         2.436418        -0.142313         0.929491
 C         3.300864        -1.018386         0.044286
 C         2.496769        -0.503823        -1.158231
 O         2.112141        -1.244946        -2.289196
 C         3.031925         0.991162        -1.258502
 C         2.172241         1.132326         0.079854
 O         1.613236         2.224962         0.683378
 H        -0.129273         0.192977         1.504480
 H        -0.912606         0.158541        -0.232613
 H        -0.505106        -1.470300         0.788603
 H         2.231603        -0.311628         1.959882
 H         4.402529        -0.767597        -0.049446
 H         3.249646        -2.159116         0.045330
 H         2.655350        -2.001268        -2.297856
 H         4.172915         1.034142        -1.217040
 H         2.646121         1.543129        -2.129304
 H         2.356844         2.823275         0.860422
