19
Iteration:  3698charge 0 multiplicity 1
 C        -0.032224        -0.571743         0.544633
 C         1.427267        -0.248407         0.163581
 C         2.817451        -0.192464         0.809555
 C         3.439163        -0.930322        -0.350354
 C         2.180430        -0.427815        -1.215449
 O         1.981686        -1.096771        -2.404948
 C         2.431674         1.125555        -1.332070
 C         2.143104         1.053657         0.140020
 O         1.874219         2.162572         1.173648
 H        -0.273192         0.238159         1.302921
 H        -0.776458        -0.434049        -0.217568
 H        -0.214672        -1.538252         0.989679
 H         2.968082        -0.123006         1.931687
 H         4.432531        -0.640570        -0.623030
 H         3.238009        -2.029478        -0.176629
 H         2.573834        -1.815379        -2.667475
 H         3.378265         1.574470        -1.719069
 H         1.595219         1.553153        -1.944769
 H         2.159676         3.028394         0.823481
