19
Iteration:   223
 C        -0.193782        -0.522536         0.059538
 C         1.294113        -0.159836         0.048863
 C         2.505137        -0.114664         0.932492
 C         3.482553        -0.945196         0.039059
 C         2.370251        -0.587276        -1.100442
 O         1.939476        -1.355823        -2.212964
 C         2.778243         1.004789        -1.268401
 C         2.154016         1.213466         0.142587
 O         1.889280         2.419342         0.834913
 H        -0.654417         0.165435         0.838903
 H        -0.467841        -0.109598        -0.914393
 H        -0.454030        -1.541359         0.243575
 H         2.721424         0.057984         1.999604
 H         4.538388        -0.533572         0.030311
 H         3.607701        -1.930451         0.308546
 H         2.353295        -2.205747        -2.051462
 H         3.839348         1.195605        -1.248357
 H         2.223691         1.550409        -2.066286
 H         1.999321         2.244273         1.770719
