19
Iteration:  1636
 C         0.026128        -0.537266         0.661391
 C         1.412542        -0.243282         0.121776
 C         2.812458        -0.009813         0.854914
 C         3.498198        -0.952010        -0.085257
 C         2.406673        -0.552451        -1.214480
 O         1.951255        -1.329423        -2.293708
 C         2.525601         1.149886        -1.353285
 C         2.036967         1.064758         0.039304
 O         1.668896         2.318709         0.758486
 H        -0.016441        -0.124686         1.751780
 H        -0.808268        -0.122165        -0.039862
 H        -0.193887        -1.560893         0.886014
 H         2.945689         0.233316         1.903663
 H         4.571206        -0.763840        -0.394493
 H         3.519650        -1.934823         0.348979
 H         2.586567        -1.094936        -3.012212
 H         3.576857         1.593321        -1.485034
 H         1.814881         1.526472        -2.087711
 H         1.112998         1.949227         1.501212
