19
Iteration:  4912
 C        -0.024857        -0.593794         0.497414
 C         1.300543        -0.110290         0.007074
 C         2.642499         0.005819         0.887999
 C         3.325588        -1.020698        -0.077968
 C         2.294963        -0.554645        -1.135599
 O         2.029639        -1.451096        -2.224622
 C         2.657954         1.068565        -1.341477
 C         2.179013         1.184678         0.089712
 O         1.956171         2.410760         0.901986
 H        -0.989753         0.045634         0.368919
 H        -0.246339        -1.452187        -0.233802
 H        -0.246563        -0.769838         1.669177
 H         2.372531        -0.003635         1.940073
 H         4.464974        -0.891270        -0.359726
 H         3.240494        -2.065690         0.123843
 H         1.376326        -1.249203        -2.909213
 H         3.757452         1.175619        -1.684148
 H         1.986745         1.520686        -2.056231
 H         1.674747         3.148351         0.297312
