19
Iteration:  2349charge 0 multiplicity 1
 C         0.075341        -0.655446         0.741372
 C         1.331902        -0.200040         0.096255
 C         2.701545        -0.163106         0.803546
 C         3.480364        -0.795581        -0.254073
 C         2.331009        -0.497400        -1.146654
 O         2.118125        -1.263196        -2.231941
 C         2.448929         1.062928        -1.329294
 C         2.081599         1.086599         0.178089
 O         1.713419         2.294171         0.708978
 H        -0.639382         0.148463         1.084061
 H        -0.650611        -1.108118         0.080946
 H         0.223104        -1.522930         1.350427
 H         2.770544        -0.169514         1.919239
 H         4.485976        -0.502657        -0.635495
 H         3.584541        -1.852769        -0.007785
 H         1.876927        -0.712216        -2.975023
 H         3.305269         1.664755        -1.773669
 H         1.541873         1.407080        -1.867972
 H         2.447541         2.662740         1.229910
