19
Iteration:  3657charge 0 multiplicity 1
 C         0.051531        -0.785310         0.511232
 C         1.363812        -0.221764         0.066135
 C         2.718511        -0.272495         0.869179
 C         3.437116        -0.979054        -0.307629
 C         2.270781        -0.392470        -1.157461
 O         1.929680        -1.090203        -2.319789
 C         2.474966         1.199844        -1.317625
 C         2.176886         1.128508         0.230999
 O         1.876900         2.283844         1.002664
 H        -0.101684        -0.784408         1.593673
 H        -0.691024        -0.209333        -0.077227
 H        -0.112899        -1.838083         0.234100
 H         2.930950        -0.301284         1.969986
 H         4.529202        -0.515429        -0.669465
 H         3.541524        -2.069684        -0.435568
 H         0.956995        -1.042491        -2.458464
 H         3.441008         1.467122        -1.679284
 H         1.668685         1.806755        -1.774551
 H         2.667947         2.834437         0.750725
