19
Iteration:  4163charge 0 multiplicity 1
 C        -0.055215        -0.270761         0.463040
 C         1.423988        -0.299002         0.095656
 C         2.604543        -0.147376         0.856132
 C         3.380410        -0.991385        -0.203415
 C         2.296130        -0.489187        -1.274741
 O         1.986275        -1.209049        -2.329365
 C         2.556124         1.035698        -1.278126
 C         2.205544         1.122471         0.163027
 O         1.846558         2.217904         0.960055
 H        -0.689783        -0.120800        -0.410025
 H        -0.239326        -1.273337         0.891947
 H        -0.277381         0.490701         1.270689
 H         2.653255        -0.250713         2.008329
 H         4.425955        -0.801468        -0.468898
 H         3.117626        -2.042937         0.133098
 H         2.597818        -1.945383        -2.437018
 H         3.644807         1.146775        -1.593331
 H         1.722362         1.269685        -1.935554
 H         2.436703         2.433646         1.695966
