19
Iteration:  3740charge 0 multiplicity 1
 C         0.022139        -0.418899         0.551721
 C         1.517831        -0.316026         0.107220
 C         2.774761        -0.242192         0.827744
 C         3.483850        -0.926477        -0.338881
 C         2.318911        -0.403356        -1.223940
 O         1.867245        -1.211851        -2.403416
 C         2.537991         1.184351        -1.252407
 C         2.191225         1.065300         0.316813
 O         1.674874         2.077132         1.001520
 H        -0.213196         0.608600         0.904779
 H        -0.825357        -0.680856        -0.063321
 H         0.067989        -1.162030         1.333538
 H         3.125151        -0.491085         1.866985
 H         4.474334        -0.609883        -0.586299
 H         3.373396        -2.036907        -0.251234
 H         1.350477        -0.479061        -2.865652
 H         3.565283         1.527856        -1.636761
 H         1.838008         1.788743        -1.857731
 H         2.064872         2.931384         0.841772
