19
Iteration:   876
 C        -0.047507        -0.703938         0.325164
 C         1.317918        -0.200868         0.045091
 C         2.613422        -0.147788         0.989533
 C         3.423410        -1.034511        -0.031116
 C         2.410967        -0.560014        -1.005000
 O         2.006349        -0.968862        -2.260720
 C         2.622832         0.965390        -1.254910
 C         2.081938         1.131574         0.157811
 O         1.845500         2.387504         0.665036
 H        -0.216526        -0.207528         1.267330
 H        -0.971001        -0.365905        -0.306000
 H        -0.284068        -1.714769         0.483732
 H         2.782161        -0.033192         2.083117
 H         4.395662        -0.593914        -0.271888
 H         3.337618        -2.119732         0.299699
 H         1.849726        -1.964424        -2.429750
 H         3.706417         1.151801        -1.412078
 H         1.897424         1.280196        -2.081685
 H         2.456251         3.053416         0.290063
