19
Iteration:  1108
 C        -0.134061        -0.695089         0.382246
 C         1.262798        -0.057135         0.249079
 C         2.562096        -0.269789         0.970838
 C         3.362576        -1.088036        -0.059209
 C         2.345363        -0.488942        -1.108676
 O         2.201194        -1.064813        -2.332251
 C         2.512094         1.002995        -1.288174
 C         2.070776         1.176820         0.141430
 O         2.018345         2.472295         0.644240
 H        -0.694773        -0.151066         1.229202
 H        -0.588733        -0.489130        -0.613067
 H        -0.034501        -1.780920         0.434194
 H         2.878520        -0.084911         2.004035
 H         4.459505        -0.925842        -0.129095
 H         3.332652        -2.253451         0.098547
 H         2.193538        -2.030256        -2.157805
 H         3.566504         1.135303        -1.654825
 H         1.738995         1.160978        -2.006632
 H         1.524509         2.521654         1.457092
