19
Iteration:  1161charge 0 multiplicity 1
 C         0.010618        -0.585556         0.380772
 C         1.343026        -0.037822         0.012495
 C         2.505355        -0.167465         0.921050
 C         3.374941        -1.008118        -0.056843
 C         2.419334        -0.519590        -1.213543
 O         1.987870        -1.253174        -2.216180
 C         2.717223         1.073507        -1.368038
 C         2.174737         1.142026         0.124148
 O         1.828681         2.319846         0.936523
 H        -0.462603        -0.075302         1.263934
 H        -0.727097        -0.357081        -0.465551
 H         0.239927        -1.590550         0.597781
 H         2.283711        -0.264508         1.986601
 H         4.336654        -0.627048        -0.270573
 H         3.311388        -2.144249         0.153157
 H         1.840745        -2.166836        -1.878633
 H         3.693417         1.504942        -1.620944
 H         2.046873         1.457482        -2.138534
 H         1.494157         3.007941         0.361458
