19
Iteration:  3548charge 0 multiplicity 1
 C        -0.044854        -0.641778         0.576557
 C         1.380017        -0.303768         0.207425
 C         2.815314        -0.203553         0.841500
 C         3.499119        -0.780152        -0.431514
 C         2.250872        -0.425927        -1.204634
 O         2.034268        -1.190072        -2.460841
 C         2.342675         1.082543        -1.278666
 C         2.091019         1.031206         0.281361
 O         1.976791         2.281678         0.989588
 H        -0.055737        -0.561138         1.688327
 H        -0.841191         0.070878         0.223648
 H        -0.295858        -1.694090         0.345807
 H         2.991038        -0.328276         1.954316
 H         4.345002        -0.327305        -0.816551
 H         3.614848        -1.816083        -0.365578
 H         1.371612        -0.682806        -2.954013
 H         3.324077         1.532120        -1.564434
 H         1.399976         1.514914        -1.668204
 H         1.631050         2.290119         1.898915
