19
Iteration:  2766
 C        -0.003093        -0.644404         0.615746
 C         1.400412        -0.298690         0.233681
 C         2.769752        -0.035249         0.842566
 C         3.505739        -0.826757        -0.265027
 C         2.274275        -0.457094        -1.157835
 O         2.149340        -1.165645        -2.351718
 C         2.238788         1.047212        -1.422151
 C         2.054190         1.153170         0.100824
 O         1.802912         2.212554         0.891697
 H        -0.406909        -1.705689         0.539244
 H        -0.114013        -0.506834         1.698243
 H        -0.724411         0.087013         0.162386
 H         3.078003         0.182061         1.879827
 H         4.551773        -0.632748        -0.538257
 H         3.660573        -1.893280         0.028795
 H         2.377021        -2.101761        -2.311366
 H         3.211743         1.417834        -1.817743
 H         1.351759         1.279032        -2.047506
 H         2.554038         2.441864         1.497317
