19
Iteration:  4508charge 0 multiplicity 1
 C        -0.069518        -0.545091         0.433063
 C         1.382043        -0.231484         0.109591
 C         2.628530        -0.069891         0.919188
 C         3.437315        -1.090003        -0.109171
 C         2.364744        -0.507418        -1.100409
 O         1.803143        -1.253513        -2.182682
 C         2.700014         1.029398        -1.287578
 C         2.234782         1.173150         0.100251
 O         1.865678         2.369488         0.782442
 H        -0.681117        -0.733560        -0.525762
 H        -0.083147        -1.332279         1.222997
 H        -0.474938         0.409633         0.828227
 H         2.715058         0.096613         1.985155
 H         4.529938        -1.057549        -0.276364
 H         3.146668        -2.126653        -0.114513
 H         2.518128        -1.196024        -2.859704
 H         3.717074         1.323388        -1.607349
 H         2.093844         1.505270        -1.957134
 H         1.339656         2.721610         0.050695
