19
Iteration:  3053
 C         0.134677        -0.905969         0.555718
 C         1.415016        -0.218206         0.129470
 C         2.780008        -0.160944         0.862017
 C         3.460099        -0.855906        -0.329971
 C         2.212530        -0.346241        -1.166348
 O         2.008360        -1.175932        -2.343019
 C         2.390366         1.152939        -1.336547
 C         2.117172         1.148363         0.240957
 O         1.773201         2.385842         0.892024
 H        -0.759650        -0.257640         0.745678
 H        -0.108931        -1.692001        -0.204668
 H         0.283218        -1.436365         1.521322
 H         3.074581        -0.129938         1.905213
 H         4.448174        -0.683356        -0.660845
 H         3.491181        -1.904243        -0.181835
 H         1.303425        -1.805698        -2.132252
 H         3.380671         1.370026        -1.827081
 H         1.451194         1.561212        -1.863892
 H         2.470148         2.437528         1.556733
