19
Iteration:  4442
 C        -0.115421        -0.596220         0.325009
 C         1.319382        -0.113114         0.076909
 C         2.667868        -0.061696         0.943070
 C         3.325123        -0.938571        -0.114237
 C         2.292384        -0.438138        -1.150878
 O         2.053138        -1.376890        -2.186828
 C         2.549073         0.985921        -1.362338
 C         2.183616         1.143333         0.175086
 O         2.106656         2.328796         0.853173
 H        -0.644258        -1.363678        -0.338223
 H        -0.146844        -0.993169         1.372913
 H        -0.905966         0.181291         0.164980
 H         2.781172         0.150421         2.088574
 H         4.462424        -0.943461        -0.149641
 H         2.974431        -1.995910        -0.147596
 H         1.098477        -1.445320        -2.296600
 H         3.569814         1.433566        -1.635872
 H         1.717299         1.460429        -1.844327
 H         1.553575         3.075062         0.528438
