19
Iteration:  3255
 C         0.127103        -0.871035         0.581466
 C         1.375696        -0.224745         0.132738
 C         2.747525        -0.084918         0.762031
 C         3.449923        -0.834030        -0.347611
 C         2.238972        -0.430866        -1.164133
 O         2.024379        -1.156647        -2.393619
 C         2.388792         1.206437        -1.299530
 C         2.025069         1.136002         0.205166
 O         1.920696         2.269195         1.019729
 H         0.248957        -1.967445         0.634304
 H        -0.422562        -0.458207         1.507553
 H        -0.700094        -0.692079        -0.193910
 H         2.910179        -0.355986         1.789011
 H         4.366491        -0.306933        -0.664190
 H         3.450065        -1.943509        -0.119282
 H         1.113310        -1.402162        -2.308453
 H         3.323903         1.582867        -1.858366
 H         1.589009         1.464797        -1.957053
 H         2.427525         2.096871         1.819729
