19
Iteration:  4280
 C        -0.045203        -0.593906         0.311429
 C         1.327349        -0.136648         0.101866
 C         2.616292        -0.161024         0.847652
 C         3.344602        -1.028589        -0.082577
 C         2.284570        -0.444361        -1.086355
 O         1.881569        -1.303291        -2.263032
 C         2.616115         1.056411        -1.195634
 C         2.164090         1.137761         0.167886
 O         2.031850         2.398420         0.757226
 H        -0.377126        -0.064118         1.214517
 H        -0.688394        -0.330090        -0.530647
 H        -0.033676        -1.679659         0.488443
 H         2.979371        -0.063556         1.947704
 H         4.354008        -0.709980        -0.308659
 H         3.262798        -2.099614         0.276811
 H         2.264023        -0.955121        -3.100367
 H         3.570519         1.323423        -1.432937
 H         1.756089         1.451309        -1.800298
 H         2.261027         2.222886         1.675347
