19
Iteration:  1076charge 0 multiplicity 1
 C        -0.019436        -0.563820         0.389622
 C         1.310044        -0.184582        -0.036804
 C         2.556095        -0.076819         0.873582
 C         3.400996        -0.951123        -0.060248
 C         2.335421        -0.455136        -1.154169
 O         2.107865        -1.278451        -2.314885
 C         2.647734         1.035785        -1.220927
 C         2.126885         1.147572         0.160721
 O         1.810890         2.332242         0.792958
 H        -0.225832         0.031329         1.356405
 H        -0.740050        -0.142807        -0.312836
 H        -0.325638        -1.653771         0.507108
 H         2.420114        -0.026751         1.971232
 H         4.544839        -1.045738        -0.188326
 H         3.177673        -1.948097         0.338991
 H         1.713333        -2.085043        -2.008210
 H         3.792021         1.190305        -1.372254
 H         2.083234         1.599821        -1.955823
 H         2.229369         2.375881         1.689969
