19
Iteration:  4974
 C        -0.035162        -0.427590         0.405490
 C         1.390379        -0.219717         0.070568
 C         2.654897        -0.039730         0.904089
 C         3.476247        -0.978373        -0.120320
 C         2.294160        -0.546571        -1.115833
 O         1.929569        -1.354165        -2.234275
 C         2.608591         0.921247        -1.219759
 C         2.157736         1.171516         0.166017
 O         1.911688         2.324142         0.772187
 H        -0.688145         0.206491        -0.210939
 H        -0.114183        -1.510455         0.209749
 H        -0.365671        -0.329110         1.448343
 H         2.836855         0.124394         1.999205
 H         4.497572        -0.610431        -0.205550
 H         3.264778        -2.071732         0.225157
 H         1.508221        -0.672152        -2.782332
 H         3.618581         1.078483        -1.552885
 H         1.911309         1.495588        -1.963755
 H         1.176455         2.761665         0.259324
