19
Iteration:  2198
 C         0.126947        -0.839873         0.621151
 C         1.392899        -0.103813         0.084283
 C         2.759292        -0.043877         0.778595
 C         3.416315        -0.953393        -0.223295
 C         2.303653        -0.445776        -1.128543
 O         2.112976        -1.366434        -2.212340
 C         2.409535         1.115279        -1.329478
 C         2.231348         1.194828         0.161326
 O         1.625835         2.389454         0.820346
 H         0.059904        -0.792097         1.771051
 H        -0.725113        -0.302076         0.185751
 H        -0.002743        -1.906841         0.441465
 H         2.757412        -0.279502         1.837405
 H         4.448794        -0.724696        -0.525303
 H         3.218267        -2.026597        -0.123890
 H         1.528801        -0.993771        -2.907181
 H         3.313704         1.648357        -1.772287
 H         1.386282         1.317635        -1.852495
 H         2.176756         3.182796         0.763126
