19
Iteration:  2693
 C         0.174263        -0.683076         0.603138
 C         1.488864        -0.183597         0.115044
 C         2.836106        -0.014925         0.888943
 C         3.521743        -0.848377        -0.242636
 C         2.360305        -0.483200        -1.139993
 O         1.790099        -1.206967        -2.224271
 C         2.551291         1.056123        -1.330698
 C         2.136689         1.129913         0.131982
 O         1.503963         2.207999         0.741664
 H        -0.552322        -0.865497        -0.161029
 H         0.273237        -1.708246         1.098283
 H        -0.358229         0.112980         1.232971
 H         2.958711        -0.056079         1.951113
 H         4.567398        -0.697513        -0.586525
 H         3.425301        -1.946952        -0.117572
 H         2.435807        -1.236678        -3.008156
 H         3.633857         1.339052        -1.491463
 H         1.771598         1.511961        -1.968244
 H         1.951130         2.429504         1.570907
