19
Iteration:   561
 C        -0.054471        -0.297754         0.335981
 C         1.348650        -0.179594         0.070001
 C         2.544227        -0.184604         0.928960
 C         3.329062        -0.971076        -0.053824
 C         2.383618        -0.507171        -1.113033
 O         2.227632        -1.187015        -2.273077
 C         2.652522         0.976753        -1.259663
 C         2.146155         1.034991         0.140748
 O         1.790257         2.206320         0.825607
 H        -0.377521         0.544737         0.996705
 H        -0.537083        -0.037771        -0.531437
 H        -0.641076        -1.202530         0.683783
 H         2.791559        -0.177983         1.993368
 H         4.370786        -0.644160        -0.197129
 H         3.244974        -2.001756         0.114321
 H         1.649182        -1.910088        -2.155960
 H         3.667667         1.115208        -1.567692
 H         1.955154         1.517719        -1.952220
 H         1.066884         2.596407         0.300080
