19
Iteration:  1105charge 0 multiplicity 1
 C        -0.122791        -0.695352         0.398475
 C         1.268923        -0.053392         0.215810
 C         2.568970        -0.277391         0.976867
 C         3.329870        -1.079560        -0.043086
 C         2.364479        -0.473087        -1.123115
 O         2.198911        -1.079884        -2.333831
 C         2.523456         1.011577        -1.300685
 C         2.089735         1.149037         0.149443
 O         2.001908         2.482556         0.645866
 H        -0.582175        -0.128304         1.210357
 H        -0.622001        -0.488107        -0.657231
 H        -0.101702        -1.754473         0.392230
 H         2.839741        -0.132302         2.004640
 H         4.387560        -0.934143        -0.169876
 H         3.415813        -2.253763         0.171652
 H         2.118872        -2.074989        -2.114092
 H         3.539158         1.246039        -1.623417
 H         1.614638         1.170370        -1.937838
 H         1.574887         2.516370         1.549207
