19
Iteration:  4183
 C        -0.116079        -0.377686         0.448375
 C         1.380558        -0.119829         0.102378
 C         2.736296        -0.257510         0.921926
 C         3.432700        -1.071535        -0.186434
 C         2.268503        -0.487888        -1.152798
 O         1.917859        -1.184342        -2.353600
 C         2.640363         1.046430        -1.263227
 C         2.130083         1.095885         0.251607
 O         1.829634         2.246121         0.823070
 H        -0.710465         0.210964        -0.301990
 H        -0.406873        -1.471159         0.387993
 H        -0.230978         0.125923         1.469425
 H         2.860576        -0.247565         2.061859
 H         4.448125        -0.729271        -0.320821
 H         3.407406        -2.227862        -0.055726
 H         2.721250        -1.562394        -2.773099
 H         3.651017         1.351427        -1.650189
 H         1.698248         1.447254        -1.829940
 H         2.582670         2.748725         1.148954
