19
Iteration:  4891charge 0 multiplicity 1
 C        -0.033589        -0.594519         0.465050
 C         1.282039        -0.075867         0.061402
 C         2.567895        -0.051533         0.839962
 C         3.280961        -0.954482        -0.092470
 C         2.366755        -0.477809        -1.136785
 O         2.036118        -1.399382        -2.148872
 C         2.673201         0.961782        -1.391570
 C         2.093561         1.201377         0.073821
 O         2.035538         2.316170         0.843078
 H        -1.000050        -0.025336         0.399470
 H        -0.415549        -1.542666         0.016521
 H        -0.053103        -0.612701         1.634392
 H         2.856202        -0.046622         1.880985
 H         4.457800        -0.679435        -0.129465
 H         3.307604        -1.971306         0.230653
 H         1.551003        -0.867665        -2.804962
 H         3.798091         1.217540        -1.632829
 H         2.016298         1.511037        -2.044315
 H         1.236067         2.806907         0.622322
