19
Iteration:  1048charge 0 multiplicity 1
 C        -0.114303        -0.416996         0.398359
 C         1.321180        -0.039937         0.080219
 C         2.609742        -0.158738         0.911087
 C         3.496574        -0.978805        -0.109882
 C         2.402135        -0.483125        -1.075480
 O         2.025283        -1.244552        -2.257855
 C         2.818572         0.998000        -1.366975
 C         2.163567         1.209568         0.008557
 O         1.606121         2.134782         0.921508
 H        -0.552871        -0.155298         1.321068
 H        -0.880036        -0.078997        -0.375955
 H        -0.239706        -1.516681         0.439486
 H         2.660684         0.121905         1.980552
 H         4.518191        -0.728761        -0.338284
 H         3.459274        -2.115296         0.161693
 H         1.791827        -2.122749        -2.073915
 H         3.830700         1.197778        -1.570820
 H         2.332504         1.339020        -2.320772
 H         2.261489         2.828327         1.119222
