19
Iteration:   542
 C        -0.250500        -0.353051         0.328031
 C         1.332353        -0.173526         0.163341
 C         2.604960        -0.164195         0.997128
 C         3.416435        -1.105611        -0.011136
 C         2.347583        -0.605966        -1.062591
 O         2.235308        -1.094738        -2.425588
 C         2.633436         0.926989        -1.289367
 C         2.204902         1.108980         0.212597
 O         1.846798         2.374415         0.753193
 H        -0.705034         0.327321         1.098953
 H        -0.872065        -0.236340        -0.649668
 H        -0.318183        -1.375694         0.558280
 H         2.593852        -0.122799         2.077688
 H         4.476886        -0.839109        -0.244436
 H         3.202035        -2.175282         0.265807
 H         2.149096        -2.060671        -2.404455
 H         3.581580         1.344191        -1.753338
 H         1.887753         1.281528        -2.028678
 H         0.897297         2.358789         0.892225
