19
Iteration:  4461charge 0 multiplicity 1
 C        -0.096384        -0.605218         0.356138
 C         1.320742        -0.160954         0.100403
 C         2.592285        -0.070036         0.840605
 C         3.355009        -1.022405        -0.079491
 C         2.321275        -0.485805        -1.093572
 O         2.013718        -1.369505        -2.157871
 C         2.557574         1.052203        -1.361654
 C         2.133350         1.176222         0.069754
 O         2.155929         2.405437         0.890890
 H        -0.364031        -1.233979        -0.538868
 H        -0.219016        -1.220970         1.305957
 H        -0.884268         0.181628         0.197853
 H         2.644012        -0.061887         2.029321
 H         4.402056        -0.861507        -0.389108
 H         3.262101        -1.943414         0.379610
 H         1.233500        -1.008960        -2.589852
 H         3.537060         1.314493        -1.731788
 H         1.901377         1.416106        -2.096201
 H         1.245816         2.805832         0.837553
