19
Iteration:  3761charge 0 multiplicity 1
 C         0.014222        -0.460984         0.546959
 C         1.481673        -0.177405         0.194884
 C         2.840416        -0.217224         0.778171
 C         3.491705        -1.021000        -0.380032
 C         2.269384        -0.369836        -1.215834
 O         1.888727        -1.056369        -2.359880
 C         2.621313         1.045506        -1.220695
 C         2.184004         1.063636         0.201760
 O         1.605484         2.098265         0.970538
 H        -0.456451         0.522880         0.718444
 H        -0.536775        -0.919895        -0.299945
 H         0.012963        -1.248485         1.316755
 H         2.937333        -0.363629         1.889082
 H         4.601890        -0.710985        -0.829337
 H         3.596505        -2.145937        -0.258842
 H         0.976457        -1.278604        -2.166602
 H         3.606783         1.520305        -1.487117
 H         1.828193         1.538626        -1.780465
 H         2.347107         2.632380         1.374573
