19
Iteration:  2155
 C        -0.005033        -0.853560         0.651820
 C         1.338212        -0.265948         0.182999
 C         2.663292         0.040294         0.840196
 C         3.611429        -0.757441        -0.201101
 C         2.329585        -0.465751        -1.161756
 O         2.003434        -1.262669        -2.223177
 C         2.432903         1.074818        -1.383103
 C         2.094404         1.109058         0.097363
 O         1.800990         2.264907         0.742694
 H        -0.304765        -0.832020         1.719099
 H        -0.766200        -0.343648         0.070450
 H         0.000692        -1.897005         0.431027
 H         2.809666         0.207172         1.898196
 H         4.568176        -0.382947        -0.561921
 H         3.660760        -1.668516         0.401651
 H         1.708242        -0.657961        -2.878270
 H         3.451089         1.345773        -1.709287
 H         1.498552         1.388303        -1.928890
 H         2.582026         2.793254         1.036903
