19
Iteration:  4588charge 0 multiplicity 1
 C        -0.090581        -0.413007         0.481297
 C         1.335837        -0.194261         0.032139
 C         2.618863        -0.106507         0.962310
 C         3.375155        -0.959818        -0.118090
 C         2.298122        -0.540659        -1.169424
 O         2.176799        -1.346982        -2.264007
 C         2.501726         1.008328        -1.379706
 C         2.131856         1.085114         0.094877
 O         2.002256         2.402952         0.858993
 H        -0.719804         0.461040         0.205278
 H        -0.662985        -1.226502         0.067161
 H        -0.082521        -0.392872         1.590640
 H         2.916812         0.028181         1.972763
 H         4.362998        -0.718313        -0.483556
 H         3.292168        -2.103364         0.068004
 H         1.497113        -1.992953        -1.960482
 H         3.481064         1.292641        -1.713071
 H         1.631947         1.317195        -1.957655
 H         1.045903         2.461631         0.957772
