19
Iteration:  2961
 C         0.063033        -0.621572         0.628494
 C         1.511903        -0.322221         0.277893
 C         2.807839        -0.174711         0.830169
 C         3.485120        -0.797852        -0.387251
 C         2.290070        -0.427391        -1.209550
 O         2.012675        -1.173699        -2.382882
 C         2.339637         1.167801        -1.356743
 C         2.090719         1.095576         0.212145
 O         1.661169         2.235578         0.939510
 H        -0.342327         0.168418         1.269106
 H        -0.379498        -0.725551        -0.328100
 H        -0.180175        -1.500546         1.266123
 H         3.186185        -0.201792         1.837727
 H         4.625408        -0.811533        -0.732364
 H         3.480972        -1.939648        -0.199902
 H         2.270753        -2.085732        -2.173409
 H         3.281077         1.498387        -1.841827
 H         1.473192         1.283158        -1.973587
 H         2.393404         2.865837         1.138631
