19
Iteration:  1410
 C        -0.011088        -0.449259         0.499727
 C         1.332751        -0.147075         0.053998
 C         2.687819        -0.055606         0.907269
 C         3.428615        -0.825026        -0.155691
 C         2.306450        -0.481806        -1.239842
 O         2.147660        -1.483365        -2.235689
 C         2.519565         1.094019        -1.351451
 C         2.119928         1.147914         0.133523
 O         1.765352         2.263186         0.847930
 H        -0.224660         0.122184         1.415018
 H        -0.824180        -0.165408        -0.173405
 H        -0.052449        -1.665572         0.694484
 H         2.925836        -0.110560         1.979434
 H         4.421815        -0.393482        -0.491713
 H         3.456745        -1.931110        -0.061310
 H         1.377478        -1.999529        -2.048206
 H         3.547055         1.355652        -1.751037
 H         1.732773         1.457307        -2.130995
 H         2.086402         2.026855         1.706453
