19
Iteration:  3654
 C         0.066687        -0.804884         0.501139
 C         1.392921        -0.242822         0.071021
 C         2.681273        -0.249174         0.870735
 C         3.445257        -0.983276        -0.314415
 C         2.271798        -0.346464        -1.153878
 O         1.908839        -1.094857        -2.300094
 C         2.481284         1.193649        -1.301977
 C         2.183455         1.102670         0.212600
 O         1.867955         2.296231         0.990507
 H        -0.104516        -0.800143         1.612300
 H        -0.684267        -0.190846         0.018018
 H        -0.112176        -1.813789         0.169351
 H         2.982164        -0.389785         1.968873
 H         4.460357        -0.489708        -0.678219
 H         3.521714        -2.145630        -0.381274
 H         0.999257        -0.855845        -2.511975
 H         3.490408         1.374164        -1.739564
 H         1.723912         1.808415        -1.839222
 H         2.680188         2.818116         0.830443
