19
Iteration:  3939
 C         0.024244        -0.292970         0.530060
 C         1.413204        -0.202947         0.136612
 C         2.740777        -0.335421         0.852773
 C         3.453594        -0.967665        -0.264240
 C         2.356682        -0.436891        -1.201053
 O         1.889388        -1.220505        -2.338349
 C         2.574002         1.093983        -1.288018
 C         2.167849         1.089028         0.185552
 O         1.700562         2.092611         0.970643
 H        -0.063492        -0.870909         1.452216
 H        -0.396615         0.710107         0.532462
 H        -0.512553        -0.911949        -0.157033
 H         2.947542        -0.204581         1.950881
 H         4.496937        -0.716719        -0.535749
 H         3.275427        -2.077941        -0.244443
 H         2.129619        -0.762482        -3.157618
 H         3.530479         1.526725        -1.471996
 H         1.824195         1.632972        -1.908351
 H         2.216679         2.910571         1.118932
