19
Iteration:  3772
 C         0.001966        -0.531719         0.491575
 C         1.428447        -0.161602         0.142346
 C         2.849551        -0.166731         0.786110
 C         3.481556        -1.048716        -0.372870
 C         2.341606        -0.453969        -1.137589
 O         1.831577        -1.004398        -2.363671
 C         2.594543         1.115020        -1.247313
 C         2.203587         1.128502         0.225696
 O         1.682182         2.100628         0.951944
 H        -0.640918         0.271020         0.914014
 H        -0.561250        -1.034936        -0.314655
 H        -0.018525        -1.175508         1.398066
 H         2.985022        -0.313848         1.885967
 H         4.565595        -0.639360        -0.752635
 H         3.306235        -2.151001        -0.154843
 H         1.327140        -1.802664        -2.128463
 H         3.620421         1.401367        -1.630766
 H         1.830285         1.514501        -1.906082
 H         2.207094         2.399044         1.726886
