19
Iteration:  1622
 C         0.094074        -0.549580         0.649998
 C         1.365502        -0.176990         0.041168
 C         2.643084        -0.063174         0.829731
 C         3.566964        -0.845994        -0.136117
 C         2.348983        -0.497374        -1.165857
 O         1.991461        -1.367084        -2.252984
 C         2.536857         0.990749        -1.348986
 C         2.090517         1.180089         0.129679
 O         1.706214         2.282984         0.766485
 H        -0.090200        -0.118011         1.580945
 H        -0.791298        -0.197499         0.076438
 H         0.093477        -1.653925         0.703555
 H         2.814021        -0.041429         1.902830
 H         4.556007        -0.479922        -0.296731
 H         3.355568        -1.943277        -0.007497
 H         2.285168        -0.987195        -3.125658
 H         3.539660         1.309949        -1.609817
 H         1.721608         1.367651        -1.921224
 H         1.259612         2.204594         1.590979
