19
Iteration:  2321charge 0 multiplicity 1
 C        -0.017527        -0.584539         0.639423
 C         1.428665        -0.214188         0.338354
 C         2.785374        -0.018238         0.826507
 C         3.528979        -0.804834        -0.193495
 C         2.355144        -0.580167        -1.214372
 O         2.103066        -1.374873        -2.404719
 C         2.367267         1.033303        -1.428769
 C         1.970862         1.156192         0.106820
 O         1.736632         2.241722         0.966764
 H        -0.734438         0.238664         0.767295
 H        -0.404236        -1.036029        -0.349550
 H        -0.165639        -1.310388         1.503529
 H         3.097481         0.431128         1.729052
 H         4.502627        -0.465154        -0.528843
 H         3.590491        -1.916138         0.041184
 H         1.995914        -0.682974        -3.134878
 H         3.354619         1.537469        -1.676455
 H         1.474310         1.205970        -2.100602
 H         2.485658         2.835139         0.980573
