19
Iteration:  4592
 C        -0.082975        -0.390768         0.465729
 C         1.313574        -0.199053         0.045649
 C         2.635693        -0.117842         0.938452
 C         3.350299        -0.938703        -0.089835
 C         2.325942        -0.526657        -1.136449
 O         2.163240        -1.356322        -2.279317
 C         2.497849         0.985065        -1.394683
 C         2.140695         1.065866         0.097258
 O         2.005878         2.411953         0.860001
 H        -0.740926         0.392307         0.180276
 H        -0.646932        -1.266901         0.099724
 H        -0.082920        -0.560584         1.530351
 H         3.032040        -0.031433         2.049322
 H         4.417000        -0.637410        -0.386321
 H         3.275776        -2.040208         0.016925
 H         1.484851        -2.019078        -2.091122
 H         3.496179         1.368758        -1.737236
 H         1.525351         1.358424        -1.962919
 H         1.039667         2.583468         1.004190
