19
Iteration:  4953
 C        -0.149077        -0.533438         0.418877
 C         1.345417        -0.192407         0.182237
 C         2.708627        -0.118950         0.957320
 C         3.437465        -1.070329        -0.089911
 C         2.340884        -0.515162        -1.107798
 O         1.987923        -1.273267        -2.181292
 C         2.637182         1.002208        -1.369462
 C         2.181771         1.141362         0.130887
 O         1.884735         2.361896         0.710131
 H        -0.684522         0.375428         0.100321
 H        -0.111557        -1.503191        -0.051726
 H        -0.313051        -0.466994         1.568122
 H         2.737921        -0.184981         2.080706
 H         4.362049        -0.653033        -0.363719
 H         3.361065        -2.175640         0.161448
 H         1.291532        -0.721366        -2.577888
 H         3.557795         1.360820        -1.786716
 H         1.851853         1.561373        -1.974041
 H         1.625460         2.992803         0.033719
