19
Iteration:  2490charge 0 multiplicity 1
 C         0.032995        -0.626798         0.462825
 C         1.385433        -0.155808         0.085816
 C         2.796913         0.055494         0.780873
 C         3.509958        -0.842361        -0.113569
 C         2.342452        -0.538573        -1.129542
 O         2.070115        -1.405285        -2.202613
 C         2.367416         0.984591        -1.330641
 C         2.034672         1.145693         0.079217
 O         1.753882         2.243673         0.914951
 H         0.017655        -0.585600         1.620702
 H        -0.800736         0.081969         0.309160
 H        -0.141704        -1.601445        -0.051175
 H         2.873905         0.105434         1.853871
 H         4.573710        -0.467790        -0.363411
 H         3.598002        -1.853230         0.311687
 H         1.948278        -0.822886        -2.983902
 H         3.206278         1.689304        -1.751684
 H         1.402517         1.253866        -1.860982
 H         2.159504         3.076264         0.615166
