19
Iteration:  4462
 C        -0.092053        -0.596505         0.356685
 C         1.321738        -0.158737         0.103848
 C         2.586026        -0.073324         0.842410
 C         3.361063        -1.026508        -0.084291
 C         2.315868        -0.490922        -1.091780
 O         2.011201        -1.371310        -2.159752
 C         2.557818         1.051252        -1.359584
 C         2.137962         1.178265         0.066691
 O         2.150747         2.404942         0.888648
 H        -0.365710        -1.238850        -0.551791
 H        -0.191953        -1.237898         1.299182
 H        -0.917429         0.145780         0.195744
 H         2.638080        -0.009593         2.043817
 H         4.419722        -0.856333        -0.395034
 H         3.274981        -1.948568         0.374996
 H         1.247228        -0.984408        -2.609323
 H         3.563652         1.325611        -1.708586
 H         1.902859         1.407109        -2.062863
 H         1.254935         2.826818         0.862375
