19
Iteration:  2219charge 0 multiplicity 1
 C         0.168212        -0.701061         0.608490
 C         1.479480        -0.129253         0.162311
 C         2.745113        -0.014244         0.905098
 C         3.458696        -0.879459        -0.176963
 C         2.338149        -0.432533        -1.201532
 O         2.024541        -1.284988        -2.240974
 C         2.474950         1.130665        -1.411183
 C         2.065853         1.092079         0.113273
 O         1.592243         2.204576         0.779947
 H         0.017167        -0.593490         1.778943
 H        -0.708656        -0.403314        -0.016193
 H         0.235728        -1.809826         0.541288
 H         3.076003         0.148523         1.935881
 H         4.549165        -0.883912        -0.431465
 H         3.136661        -1.908324         0.028519
 H         1.146449        -1.233164        -2.581497
 H         3.506443         1.501430        -1.718902
 H         1.653768         1.551107        -2.123174
 H         2.408360         2.694132         1.077534
