19
Iteration:  1963charge 0 multiplicity 1
 C         0.146607        -0.816462         0.668691
 C         1.399410        -0.150940         0.098462
 C         2.658373        -0.029427         0.796839
 C         3.515218        -0.839084        -0.187089
 C         2.358969        -0.452249        -1.178355
 O         1.963221        -1.349599        -2.150256
 C         2.557485         1.160080        -1.426199
 C         2.062916         1.161993         0.039756
 O         1.659622         2.289943         0.756328
 H        -0.010496        -0.773997         1.692527
 H        -0.619352        -0.378872         0.035416
 H         0.121797        -1.920687         0.523494
 H         2.876781         0.135191         1.832479
 H         4.545456        -0.563623        -0.307779
 H         3.535016        -1.917172         0.009578
 H         1.018632        -1.181266        -2.322335
 H         3.619843         1.436892        -1.302064
 H         2.056618         1.841786        -2.111400
 H         2.155654         2.440129         1.608874
