19
Iteration:  2666
 C         0.089530        -0.791573         0.419216
 C         1.510232        -0.253051         0.192516
 C         2.825381         0.002064         0.861328
 C         3.572023        -0.852118        -0.156483
 C         2.369269        -0.522327        -1.074111
 O         1.827357        -1.256627        -2.191225
 C         2.434874         1.061952        -1.444919
 C         2.068055         1.209101         0.108068
 O         1.660404         2.283917         0.894159
 H        -0.814031        -0.382364        -0.121792
 H         0.050318        -1.854254         0.264569
 H        -0.298579        -0.386264         1.341349
 H         2.975870         0.070677         1.972184
 H         4.583478        -0.603847        -0.546542
 H         3.530359        -1.913205         0.165559
 H         1.988848        -0.777439        -3.064133
 H         3.403977         1.462484        -1.686328
 H         1.609444         1.345045        -2.109106
 H         2.384116         2.920671         0.791234
