19
Iteration:   436charge 0 multiplicity 1
 C        -0.181812        -0.520060         0.067071
 C         1.328806        -0.063807         0.135050
 C         2.653686        -0.162104         1.018758
 C         3.419943        -1.073692         0.047629
 C         2.413619        -0.478542        -1.080193
 O         1.950519        -1.199748        -2.142951
 C         2.730512         0.987854        -1.304569
 C         2.207185         1.107536         0.231247
 O         1.801027         2.329083         0.745361
 H        -0.927852        -0.401042         0.842905
 H        -0.718280        -0.077260        -0.896648
 H        -0.200547        -1.640019         0.076267
 H         2.699135        -0.239033         2.101896
 H         4.473347        -1.041242        -0.163990
 H         3.247383        -2.223277         0.174263
 H         2.588774        -1.105270        -2.833510
 H         3.789564         1.342578        -1.387780
 H         1.891526         1.485316        -1.747852
 H         1.927777         2.838556        -0.057865
