19
Iteration:   557
 C        -0.082507        -0.322641         0.337394
 C         1.325130        -0.176349         0.096427
 C         2.573474        -0.198359         0.945981
 C         3.333045        -0.979393        -0.031537
 C         2.368212        -0.497132        -1.110204
 O         2.246086        -1.144824        -2.294280
 C         2.625538         0.933089        -1.273257
 C         2.184765         1.070050         0.122393
 O         1.803222         2.242213         0.812680
 H        -0.442799         0.443556         1.022598
 H        -0.591151        -0.023629        -0.665616
 H        -0.687482        -1.181281         0.734871
 H         2.764915        -0.258928         2.024656
 H         4.391752        -0.719529        -0.168500
 H         3.313752        -2.110734         0.110761
 H         1.670994        -1.984411        -2.219963
 H         3.701982         0.999235        -1.549372
 H         1.878867         1.401872        -1.904577
 H         0.954370         2.497980         0.387581
