19
Iteration:  3658charge 0 multiplicity 1
 C         0.046140        -0.778091         0.513285
 C         1.356004        -0.213470         0.069112
 C         2.731625        -0.279384         0.867672
 C         3.438146        -0.974359        -0.307660
 C         2.270238        -0.407505        -1.162230
 O         1.936276        -1.089390        -2.326371
 C         2.472227         1.199475        -1.319372
 C         2.173357         1.135708         0.237227
 O         1.881228         2.279099         1.005660
 H        -0.100181        -0.768820         1.583220
 H        -0.704988        -0.216693        -0.097620
 H        -0.106337        -1.852893         0.249535
 H         2.903467        -0.271126         1.947611
 H         4.508830        -0.545838        -0.646488
 H         3.538714        -2.032205        -0.442526
 H         0.945081        -1.101152        -2.441499
 H         3.442222         1.507581        -1.662057
 H         1.652250         1.792296        -1.753849
 H         2.648118         2.837907         0.736345
