19
Iteration:  4345
 C        -0.106244        -0.392355         0.505028
 C         1.399305        -0.158975         0.106704
 C         2.713109        -0.122065         0.826153
 C         3.345106        -1.001745        -0.091400
 C         2.309650        -0.526666        -1.212237
 O         2.012417        -1.332080        -2.264716
 C         2.678212         0.993689        -1.272657
 C         2.237100         1.140388         0.144947
 O         1.847713         2.331262         0.831941
 H        -0.391140        -1.005770         1.350208
 H        -0.560823         0.539348         0.754271
 H        -0.616248        -0.874348        -0.289277
 H         2.764656        -0.294863         1.992287
 H         4.365063        -1.106284        -0.458420
 H         3.033274        -2.082064         0.039857
 H         1.865509        -0.872723        -3.102662
 H         3.727414         1.343808        -1.656072
 H         1.855589         1.499383        -1.913194
 H         0.952687         2.249096         1.241567
