19
Iteration:  1297
 C         0.048924        -0.658342         0.511591
 C         1.340078        -0.099046         0.005078
 C         2.631469         0.001254         0.869847
 C         3.365791        -0.963049        -0.003158
 C         2.325907        -0.510327        -1.140175
 O         1.959424        -1.267356        -2.257825
 C         2.678144         1.036927        -1.409181
 C         2.114265         1.182027         0.127873
 O         1.832275         2.255802         0.891613
 H        -0.301581        -0.155207         1.427389
 H        -0.781447        -0.424123        -0.134418
 H         0.159037        -1.776265         0.686634
 H         2.749812         0.087426         1.940312
 H         4.439887        -0.784875        -0.306368
 H         3.164302        -1.975852         0.139491
 H         2.638416        -1.538708        -2.845874
 H         3.699105         1.128215        -1.804921
 H         1.890534         1.479494        -1.998267
 H         1.278068         2.844625         0.330205
