19
Iteration:   626charge 0 multiplicity 1
 C        -0.071330        -0.418545         0.147889
 C         1.369291        -0.164205         0.091947
 C         2.671582        -0.080042         0.955302
 C         3.368465        -0.992977        -0.006700
 C         2.349182        -0.494421        -1.077685
 O         2.063784        -1.190880        -2.208851
 C         2.640737         1.013855        -1.325319
 C         2.186091         1.114218         0.165776
 O         1.752868         2.215988         0.765973
 H        -0.581508         0.075056         1.031543
 H        -0.453393        -0.029610        -0.746034
 H        -0.422286        -1.556876         0.210609
 H         2.720413        -0.032362         2.053978
 H         4.452300        -0.854392        -0.159615
 H         3.227591        -2.004052         0.265553
 H         1.885943        -2.161001        -2.045197
 H         3.635045         1.282133        -1.609634
 H         1.827023         1.513784        -1.911774
 H         2.136430         2.207845         1.688785
