19
Iteration:  2373
 C         0.166582        -0.754390         0.671360
 C         1.438013        -0.211724         0.154768
 C         2.743459        -0.143869         0.910274
 C         3.464822        -0.967548        -0.204177
 C         2.312723        -0.437480        -1.263522
 O         2.055580        -1.344523        -2.297956
 C         2.532769         1.141164        -1.393520
 C         2.090644         1.193957         0.204861
 O         1.582688         2.453237         0.719236
 H        -0.284366         0.052587         1.349267
 H        -0.727349        -0.900654         0.071595
 H         0.305314        -1.752098         1.088803
 H         2.829719        -0.225994         1.968235
 H         4.558970        -0.942340        -0.361493
 H         3.271486        -2.075365        -0.056981
 H         1.152955        -1.138474        -2.730074
 H         3.537143         1.496721        -1.530644
 H         1.909039         1.853959        -2.001014
 H         1.905958         2.625108         1.601579
