19
Iteration:  2029
 C         0.058339        -0.664056         0.672628
 C         1.404584        -0.181691         0.265272
 C         2.793152        -0.081131         0.784331
 C         3.442825        -0.882078        -0.296084
 C         2.343003        -0.437603        -1.145139
 O         2.180489        -1.308122        -2.170231
 C         2.354445         1.064018        -1.370266
 C         2.077385         1.096936         0.151457
 O         1.654152         2.283722         0.785007
 H        -0.470860        -0.052075         1.356999
 H        -0.549784        -0.573238        -0.279471
 H        -0.123445        -1.800884         0.883105
 H         3.142303        -0.186368         1.843870
 H         4.301951        -0.668412        -0.942662
 H         3.455180        -1.976487        -0.178430
 H         1.836629        -0.695828        -2.892249
 H         3.271190         1.602734        -1.716052
 H         1.538978         1.324683        -2.067036
 H         2.219864         3.008789         0.532427
