19
Iteration:  4657charge 0 multiplicity 1
 C         0.004126        -0.564445         0.391190
 C         1.408028        -0.077735         0.071430
 C         2.675146        -0.091656         0.945711
 C         3.378919        -1.045295        -0.076176
 C         2.322450        -0.536237        -1.121014
 O         1.800846        -1.306297        -2.208537
 C         2.733320         1.030863        -1.361968
 C         2.189970         1.174202         0.165349
 O         1.828448         2.347323         0.813595
 H        -0.708154         0.010135        -0.132400
 H        -0.060066        -1.541009        -0.049740
 H        -0.184915        -0.489650         1.429558
 H         2.705332         0.198474         2.055743
 H         4.383600        -0.701918        -0.423084
 H         3.291730        -2.175997         0.011857
 H         2.306616        -2.123022        -2.381152
 H         3.757676         1.368956        -1.408388
 H         2.009588         1.662438        -2.004625
 H         1.541461         3.030264         0.165115
