19
Iteration:  1128
 C        -0.141582        -0.691624         0.356935
 C         1.281753        -0.182226         0.215422
 C         2.656007        -0.042243         0.935897
 C         3.286214        -0.994933        -0.062213
 C         2.303303        -0.537079        -1.077732
 O         2.121723        -1.096131        -2.344523
 C         2.610290         0.959885        -1.243835
 C         2.040579         1.092724         0.120469
 O         2.075635         2.434419         0.710704
 H        -0.693981        -0.165842         1.172223
 H        -0.635204        -0.644809        -0.693967
 H        -0.126175        -1.741400         0.474108
 H         2.733907        -0.007929         2.009113
 H         4.268252        -0.899000        -0.474021
 H         3.288170        -2.089806         0.297075
 H         2.494264        -1.950696        -2.399881
 H         3.635887         1.307250        -1.156610
 H         1.927530         1.458050        -1.927187
 H         1.181203         2.652713         1.008089
