19
Iteration:  4038charge 0 multiplicity 1
 C         0.032148        -0.648987         0.358500
 C         1.329325        -0.087803         0.129705
 C         2.658331        -0.137035         0.886836
 C         3.321734        -1.091987        -0.174136
 C         2.336805        -0.420673        -1.155164
 O         1.743967        -1.168986        -2.312796
 C         2.692334         1.111558        -1.249979
 C         2.201807         1.161731         0.168540
 O         1.897652         2.298967         0.895924
 H         0.278905        -1.728297         0.152895
 H        -0.038597        -0.701661         1.490377
 H        -0.870520        -0.290437        -0.134964
 H         2.567265        -0.444701         1.970018
 H         4.319472        -0.940687        -0.384558
 H         3.267207        -2.128118         0.213115
 H         2.446213        -1.463598        -2.911971
 H         3.716175         1.351137        -1.407056
 H         2.101540         1.551036        -2.079551
 H         2.721571         2.656483         1.301114
