19
Iteration:  1603charge 0 multiplicity 1
 C         0.035212        -0.683185         0.569484
 C         1.344034        -0.206938         0.075080
 C         2.703140        -0.122774         0.903387
 C         3.420897        -0.860765        -0.191200
 C         2.282928        -0.503622        -1.114818
 O         2.085751        -1.352968        -2.139515
 C         2.529879         1.056398        -1.422363
 C         2.149617         1.132389         0.136935
 O         1.772177         2.422415         0.732977
 H        -0.163024        -0.082915         1.598135
 H        -0.857058        -0.412433        -0.158574
 H         0.107846        -1.753283         0.593014
 H         2.649854        -0.300464         1.970186
 H         4.260648        -0.293014        -0.739819
 H         3.693489        -1.901099        -0.023152
 H         1.856053        -0.855713        -3.009076
 H         3.525059         1.564061        -1.779093
 H         1.725219         1.608100        -1.944237
 H         1.549933         2.146080         1.630891
