19
Iteration:   358
 C        -0.108975        -0.236210         0.378339
 C         1.279164        -0.090787        -0.045598
 C         2.523088        -0.071735         0.923197
 C         3.200159        -1.058197        -0.033878
 C         2.334101        -0.492325        -1.197547
 O         2.453647        -1.448111        -2.238369
 C         2.703302         0.955222        -1.306669
 C         2.159282         1.208052         0.123299
 O         1.814338         2.239911         0.967539
 H        -0.384796         0.487194         1.161155
 H        -0.854812        -0.154751        -0.532615
 H        -0.406542        -1.217904         0.692688
 H         2.393686        -0.214142         1.995769
 H         4.264475        -1.049639        -0.221438
 H         2.855012        -2.145419         0.071122
 H         1.852442        -1.283588        -2.937925
 H         3.758147         1.157132        -1.717875
 H         1.991768         1.360329        -2.033983
 H         0.845181         2.390871         0.881915
