19
Iteration:  3608charge 0 multiplicity 1
 C         0.098359        -0.840348         0.457596
 C         1.513139        -0.218320         0.138249
 C         2.816564        -0.093512         0.763049
 C         3.410587        -0.970450        -0.296261
 C         2.241027        -0.435602        -1.178333
 O         1.696243        -1.018823        -2.311107
 C         2.581835         1.112908        -1.308596
 C         2.201634         1.159379         0.202299
 O         1.772151         2.298682         1.007864
 H         0.128350        -1.192409         1.509639
 H        -0.717215        -0.119355         0.379403
 H        -0.166689        -1.751453        -0.125889
 H         2.942495        -0.132129         1.830865
 H         4.548191        -0.950231        -0.576417
 H         3.173664        -2.051254         0.119562
 H         2.380377        -1.516930        -2.806184
 H         3.634391         1.486330        -1.613636
 H         1.908141         1.596628        -2.031059
 H         1.963634         2.171373         1.939400
