19
Iteration:  3581
 C         0.066671        -0.721037         0.522100
 C         1.449637        -0.136634         0.121022
 C         2.760390        -0.229263         0.788017
 C         3.492300        -0.991586        -0.341093
 C         2.277128        -0.372295        -1.194249
 O         1.876412        -1.063488        -2.357660
 C         2.462342         1.215227        -1.260760
 C         2.112214         1.075824         0.198984
 O         1.868528         2.222842         0.940586
 H         0.264718        -0.999109         1.577855
 H        -0.881735        -0.138291         0.583763
 H        -0.148783        -1.691754         0.037953
 H         2.896755        -0.183549         1.899161
 H         4.407748        -0.596777        -0.581508
 H         3.435214        -2.032683        -0.213692
 H         1.528089        -1.887780        -1.945604
 H         3.380500         1.695516        -1.571687
 H         1.679384         1.661180        -1.901752
 H         1.732948         2.123047         1.880573
