19
Iteration:  1703charge 0 multiplicity 1
 C         0.004084        -0.724660         0.505046
 C         1.430032        -0.248781         0.069847
 C         2.781638        -0.015875         0.835051
 C         3.530260        -0.802915        -0.206780
 C         2.363471        -0.472561        -1.193314
 O         1.948440        -1.276021        -2.158275
 C         2.460303         1.046837        -1.329963
 C         2.037919         1.139624         0.132977
 O         1.811313         2.316137         0.823147
 H        -0.132679        -0.137675         1.462418
 H        -0.800148        -0.581384        -0.255630
 H        -0.075626        -1.756308         0.816810
 H         3.015399         0.147055         1.908101
 H         4.584057        -0.425950        -0.359987
 H         3.641175        -1.807603         0.103286
 H         1.744294        -2.167403        -1.849637
 H         3.488989         1.378168        -1.631067
 H         1.813583         1.561507        -2.055161
 H         0.935275         2.661742         0.577268
