19
Iteration:  3965
 C        -0.105857        -0.379119         0.507164
 C         1.353023        -0.241329         0.111279
 C         2.757615        -0.246526         0.855691
 C         3.404091        -0.943094        -0.276695
 C         2.304940        -0.477787        -1.144372
 O         2.073488        -1.171223        -2.365235
 C         2.478910         1.038059        -1.280481
 C         2.246569         1.115741         0.192271
 O         1.843558         2.164163         0.967131
 H        -0.353440        -1.037488         1.345780
 H        -0.561931         0.631161         0.624619
 H        -0.609141        -0.821532        -0.392562
 H         2.950253        -0.347504         1.903776
 H         4.558569        -0.846843        -0.649599
 H         3.160661        -2.026641        -0.066394
 H         1.197206        -0.972599        -2.740033
 H         3.323786         1.664297        -1.709277
 H         1.543039         1.315010        -1.824380
 H         2.515426         2.727140         1.412966
