19
Iteration:  3731
 C         0.034105        -0.416923         0.573432
 C         1.409762        -0.271454         0.096361
 C         2.804574        -0.231765         0.837542
 C         3.504013        -0.919748        -0.341585
 C         2.294345        -0.377481        -1.275764
 O         1.882144        -1.208341        -2.376385
 C         2.518922         1.146047        -1.228015
 C         2.238194         1.035254         0.216079
 O         1.691928         2.077322         1.055211
 H        -0.215406         0.530380         1.113629
 H        -0.654726        -0.680095        -0.215748
 H        -0.022328        -1.130127         1.369571
 H         2.821363        -0.420467         1.922811
 H         4.438524        -0.694202        -0.575517
 H         3.529334        -2.018693        -0.218823
 H         1.784986        -0.584671        -3.167462
 H         3.490507         1.624342        -1.527994
 H         1.579016         1.607636        -1.620321
 H         2.072407         2.850961         0.638005
