19
Iteration:  3477
 C         0.092695        -0.778444         0.639277
 C         1.423503        -0.156865         0.108675
 C         2.831606        -0.239108         0.816460
 C         3.511222        -0.917023        -0.481232
 C         2.269545        -0.398719        -1.229752
 O         1.761395        -1.032587        -2.325161
 C         2.644223         1.241909        -1.253319
 C         2.144207         1.177013         0.180425
 O         1.652572         2.167945         0.987939
 H        -0.606860        -0.153764         1.210036
 H        -0.507926        -1.013796        -0.237411
 H         0.279422        -1.706548         1.202438
 H         3.098854        -0.416312         1.827919
 H         4.575765        -0.713829        -0.863876
 H         3.578875        -2.055671        -0.378075
 H         1.727614        -1.968398        -2.127044
 H         3.681441         1.414742        -1.329873
 H         1.973372         1.688861        -1.942660
 H         2.216953         2.200524         1.773446
