19
Iteration:   365charge 0 multiplicity 1
 C        -0.136425        -0.214757         0.346735
 C         1.287551        -0.005788         0.023596
 C         2.521698        -0.084687         0.885068
 C         3.213058        -1.042040        -0.050927
 C         2.397681        -0.529755        -1.196669
 O         2.405167        -1.432001        -2.203396
 C         2.711486         0.962715        -1.369724
 C         2.167207         1.143577         0.105747
 O         1.790318         2.200137         0.974951
 H        -0.643482         0.399202         1.172979
 H        -0.753178        -0.043810        -0.541990
 H        -0.273134        -1.232347         0.779982
 H         2.464105        -0.093906         1.983165
 H         4.353489        -0.962080        -0.063783
 H         2.964896        -2.029313         0.151780
 H         1.946514        -1.183806        -2.995219
 H         3.758307         1.021816        -1.560066
 H         1.956740         1.453921        -2.013594
 H         0.831545         2.194384         0.932395
