19
Iteration:  3305charge 0 multiplicity 1
 C         0.201407        -0.702330         0.612814
 C         1.499396        -0.212274         0.159168
 C         2.877748        -0.184545         0.835675
 C         3.530943        -0.933421        -0.480884
 C         2.267405        -0.441803        -1.174361
 O         1.798327        -0.960453        -2.378234
 C         2.511473         1.076491        -1.183903
 C         2.156635         1.104176         0.245245
 O         1.602176         2.234849         0.868937
 H         0.300137        -1.529479         1.372119
 H        -0.509462         0.093511         0.682726
 H        -0.385207        -1.208886        -0.152349
 H         2.885305        -0.315885         1.922489
 H         4.571535        -0.673908        -0.852373
 H         3.537329        -1.997174        -0.303899
 H         1.711484        -1.932033        -2.199914
 H         3.483163         1.584252        -1.402511
 H         1.748070         1.725434        -1.761419
 H         1.363556         1.973929         1.782358
