19
Iteration:   777
 C        -0.073496        -0.325267         0.306744
 C         1.416263        -0.248808         0.127441
 C         2.678344        -0.174233         0.917732
 C         3.485881        -0.960670        -0.120045
 C         2.341324        -0.579014        -1.056549
 O         2.088669        -1.133435        -2.324215
 C         2.544071         0.911924        -1.166157
 C         2.145484         1.082450         0.199095
 O         1.697237         2.339118         0.668698
 H        -0.378599         0.408315         1.037936
 H        -0.830163        -0.090325        -0.585648
 H        -0.497379        -1.224231         0.706384
 H         2.650431        -0.612834         1.896805
 H         4.526127        -0.597310        -0.243139
 H         3.472339        -2.070437         0.134645
 H         2.213956        -2.134760        -2.284287
 H         3.587997         1.287058        -1.238403
 H         1.825646         1.377599        -1.927813
 H         2.061007         2.466337         1.594007
