19
Iteration:  2539
 C         0.111333        -0.556338         0.713321
 C         1.429981        -0.185854         0.156138
 C         2.803271        -0.084012         0.863497
 C         3.515721        -0.953243        -0.346839
 C         2.340267        -0.475719        -1.107412
 O         1.937819        -1.245654        -2.266972
 C         2.606832         1.102966        -1.194739
 C         2.124711         1.123581         0.140520
 O         1.437969         2.221180         0.617428
 H        -0.291459         0.207169         1.336793
 H        -0.680267        -0.636765        -0.074774
 H         0.156111        -1.606845         1.001147
 H         3.012433        -0.162250         1.997225
 H         4.475978        -0.625909        -0.757157
 H         3.438073        -2.001754         0.038352
 H         2.717345        -1.797056        -2.538426
 H         3.667110         1.444309        -1.382220
 H         1.960679         1.635420        -1.934999
 H         1.987454         2.848719         1.116396
