19
Iteration:  2887
 C         0.098794        -0.747898         0.688081
 C         1.402886        -0.190177         0.148253
 C         2.801340        -0.112410         0.805959
 C         3.482952        -0.892896        -0.373633
 C         2.282488        -0.496586        -1.140832
 O         1.975187        -1.140320        -2.336060
 C         2.451516         1.165588        -1.265261
 C         2.144033         1.112653         0.148959
 O         1.633602         2.283183         0.800708
 H         0.184321        -1.108908         1.788403
 H        -0.814206        -0.110286         0.600619
 H        -0.197132        -1.591512        -0.016007
 H         3.089458        -0.298010         1.863843
 H         4.456693        -0.711196        -0.662410
 H         3.716128        -1.871403        -0.064821
 H         2.127926        -2.137053        -2.226391
 H         3.437436         1.698394        -1.474384
 H         1.555726         1.726974        -1.595623
 H         2.383377         2.637963         1.314142
