19
Iteration:  2366
 C         0.119089        -0.732959         0.702890
 C         1.412681        -0.194598         0.168488
 C         2.679143        -0.183377         0.914464
 C         3.490152        -0.977837        -0.221274
 C         2.347190        -0.391100        -1.274443
 O         2.068924        -1.355719        -2.284294
 C         2.478959         1.144388        -1.354000
 C         2.098799         1.205473         0.171505
 O         1.621469         2.407680         0.687424
 H        -0.226106         0.037749         1.345811
 H        -0.644796        -0.919201        -0.127653
 H         0.465427        -1.564047         1.396075
 H         2.834378        -0.292230         1.996932
 H         4.548500        -0.649673        -0.269051
 H         3.466483        -2.083260        -0.301129
 H         1.379126        -0.971988        -2.883154
 H         3.524156         1.487565        -1.441499
 H         1.660614         1.658888        -1.866436
 H         2.089388         2.596142         1.508792
