19
Iteration:  3557charge 0 multiplicity 1
 C        -0.061505        -0.704150         0.609652
 C         1.455379        -0.361320         0.129493
 C         2.756045        -0.141147         0.870295
 C         3.451813        -0.803568        -0.450596
 C         2.258472        -0.384232        -1.299101
 O         2.022210        -1.174980        -2.428600
 C         2.414348         1.088666        -1.229790
 C         2.157264         1.083389         0.323957
 O         1.959728         2.296609         0.973639
 H        -0.186513        -0.697448         1.732217
 H        -0.755602         0.083883         0.270705
 H        -0.464331        -1.632493         0.227347
 H         2.900317        -0.431951         1.942352
 H         4.365904        -0.274049        -0.702544
 H         3.495529        -1.843431        -0.301446
 H         1.075747        -1.051327        -2.570821
 H         3.190583         1.392500        -1.870949
 H         1.545399         1.583973        -1.671973
 H         1.616419         2.164910         1.882947
