19
Iteration:   323charge 0 multiplicity 1
 C        -0.283464        -0.414005         0.451232
 C         1.213357        -0.098864         0.059025
 C         2.443490        -0.217153         0.933635
 C         3.335002        -1.047238         0.055739
 C         2.483767        -0.457373        -1.124837
 O         2.340766        -1.281576        -2.340046
 C         2.755519         0.948731        -1.217653
 C         2.068839         1.079081         0.164929
 O         1.900667         2.314940         0.691856
 H        -0.627042         0.118611         1.377030
 H        -0.847163         0.031937        -0.456821
 H        -0.327920        -1.457202         0.545383
 H         2.305635        -0.226045         2.020036
 H         4.426183        -0.824257         0.002582
 H         3.146521        -2.099054         0.098052
 H         1.597081        -0.901853        -2.777297
 H         3.801855         1.355190        -1.268194
 H         2.144438         1.432145        -2.001568
 H         1.993605         3.080959         0.078805
