19
Iteration:   945charge 0 multiplicity 1
 C        -0.020587        -0.588659         0.465106
 C         1.312503        -0.058260        -0.071255
 C         2.490975        -0.076301         0.895110
 C         3.404906        -1.048215        -0.086292
 C         2.437878        -0.489493        -1.169721
 O         2.069010        -1.329987        -2.289774
 C         2.710704         1.117617        -1.367145
 C         2.049014         1.204942         0.065638
 O         1.786805         2.338963         0.935744
 H        -0.229220         0.132009         1.319369
 H        -0.828296        -0.392251        -0.149656
 H        -0.088172        -1.664300         0.765243
 H         2.579889        -0.211780         1.951660
 H         4.527188        -0.852478        -0.286564
 H         3.219230        -2.082257         0.059449
 H         1.976653        -2.245570        -1.881502
 H         3.747411         1.458743        -1.362444
 H         2.057035         1.371766        -2.155393
 H         2.376874         2.184765         1.726522
