19
Iteration:  4087
 C        -0.036035        -0.513185         0.423540
 C         1.305185        -0.074485         0.166023
 C         2.675317        -0.253203         0.875720
 C         3.417649        -1.069076        -0.145092
 C         2.374404        -0.482308        -1.115201
 O         1.904901        -1.151961        -2.333344
 C         2.658127         1.049961        -1.211674
 C         2.223828         1.080393         0.160195
 O         1.809862         2.254753         0.835162
 H        -0.274716        -1.125935        -0.420208
 H        -0.228996        -1.100086         1.296044
 H        -0.607501         0.409542         0.359556
 H         2.881346        -0.105654         1.960657
 H         4.498765        -0.938094        -0.424307
 H         3.356163        -2.138627        -0.328733
 H         1.063235        -0.673196        -2.530388
 H         3.659376         1.428280        -1.592219
 H         1.880103         1.453474        -1.854929
 H         2.572369         2.855027         0.779992
