19
Iteration:  4416
 C        -0.049178        -0.507258         0.417730
 C         1.339544        -0.084031         0.103391
 C         2.651158        -0.140181         0.842185
 C         3.404103        -1.006829        -0.123758
 C         2.271527        -0.609579        -1.082014
 O         1.999813        -1.331050        -2.243220
 C         2.646836         1.040462        -1.313584
 C         2.172934         1.164930         0.136602
 O         1.942715         2.357411         0.866579
 H        -0.520747        -1.326610        -0.152663
 H        -0.361289        -0.628501         1.496113
 H        -0.660981         0.270223        -0.101952
 H         2.619001        -0.318625         1.904909
 H         4.417474        -0.637468        -0.230693
 H         3.511187        -2.050278         0.056930
 H         1.067004        -1.524614        -2.341097
 H         3.581291         1.478544        -1.498651
 H         1.994616         1.436695        -2.094109
 H         1.700557         3.155589         0.338383
