19
Iteration:  4653
 C         0.001158        -0.570648         0.409035
 C         1.374613        -0.079948         0.104214
 C         2.677778        -0.091539         0.929594
 C         3.408664        -1.017264        -0.080119
 C         2.351712        -0.500503        -1.110891
 O         1.802705        -1.306270        -2.222498
 C         2.703233         1.005883        -1.364655
 C         2.194877         1.155398         0.145805
 O         1.837141         2.336654         0.805673
 H        -0.674259         0.197835        -0.149783
 H        -0.016030        -1.517888        -0.185631
 H        -0.378757        -0.476648         1.477913
 H         2.591143         0.106702         2.009701
 H         4.379453        -0.830273        -0.493039
 H         3.266940        -2.122162         0.091978
 H         2.328822        -2.123577        -2.262587
 H         3.734235         1.358353        -1.352167
 H         2.087694         1.633199        -1.957654
 H         1.555241         3.042854         0.211537
