19
Iteration:  4757charge 0 multiplicity 1
 C        -0.126344        -0.420407         0.507422
 C         1.354874        -0.152057         0.161371
 C         2.655326        -0.101432         0.837548
 C         3.345350        -1.026890        -0.135441
 C         2.360107        -0.423744        -1.157105
 O         2.120743        -1.370408        -2.235093
 C         2.523889         1.036621        -1.332244
 C         2.205657         1.084003         0.156661
 O         1.942275         2.295558         0.805417
 H        -0.299687        -0.900739        -0.388550
 H        -0.346970        -1.106544         1.317203
 H        -0.659872         0.449196         0.764941
 H         2.574792        -0.148270         1.884435
 H         4.464133        -0.845556        -0.252234
 H         3.215724        -2.069101         0.062266
 H         1.202506        -1.335424        -2.608531
 H         3.559274         1.284195        -1.613137
 H         1.810821         1.651395        -1.949216
 H         1.321695         2.831059         0.314765
