19
Iteration:   672charge 0 multiplicity 1
 C        -0.121253        -0.675715         0.295260
 C         1.267708        -0.173313         0.097005
 C         2.489889        -0.195939         0.952739
 C         3.272384        -0.942858        -0.067019
 C         2.280176        -0.476343        -1.078515
 O         2.169215        -1.119264        -2.310477
 C         2.643274         0.981018        -1.153434
 C         2.168074         1.140630         0.210448
 O         2.064525         2.450177         0.641657
 H        -0.559758        -0.439720         1.315893
 H        -0.779144        -0.490090        -0.553595
 H         0.118222        -1.808189         0.338087
 H         2.566449        -0.216048         2.041962
 H         4.305394        -0.716012        -0.290005
 H         3.231600        -2.005373         0.086221
 H         2.223749        -2.103467        -2.007690
 H         3.691923         1.166694        -1.432666
 H         1.958385         1.474578        -1.828636
 H         1.172203         2.541972         1.057422
