19
Iteration:  4788charge 0 multiplicity 1
 C        -0.016174        -0.320913         0.484599
 C         1.368779        -0.162244         0.037777
 C         2.661225        -0.097164         0.758920
 C         3.435913        -0.997962        -0.128953
 C         2.334958        -0.551365        -1.152106
 O         2.004981        -1.433080        -2.197968
 C         2.664272         0.980300        -1.353497
 C         2.143901         1.159189         0.106198
 O         1.806597         2.284772         0.991441
 H        -0.530176        -0.713186        -0.433282
 H        -0.168483        -1.055475         1.330272
 H        -0.606248         0.604748         0.701513
 H         2.752245        -0.004037         1.807284
 H         4.333037        -0.533912        -0.358593
 H         3.534565        -2.050478         0.224003
 H         1.207160        -1.153843        -2.681585
 H         3.638955         1.253922        -1.495596
 H         2.063948         1.489258        -2.147362
 H         1.343421         2.975417         0.442496
