19
Iteration:   894
 C        -0.069116        -0.723277         0.431475
 C         1.388244        -0.224500         0.177917
 C         2.642265        -0.091881         0.896093
 C         3.430112        -1.107325         0.033830
 C         2.344437        -0.515233        -1.113734
 O         2.011738        -0.996400        -2.379451
 C         2.696457         0.953338        -1.203573
 C         2.082663         1.132874         0.119432
 O         1.771717         2.515166         0.644883
 H        -0.623190        -0.432096         1.330529
 H        -0.719067        -0.483696        -0.448616
 H        -0.023163        -1.839566         0.365168
 H         2.536699        -0.173320         1.963439
 H         4.507727        -1.163157        -0.132149
 H         3.099587        -2.159843         0.308984
 H         1.785649        -1.985572        -2.265837
 H         3.748893         1.250579        -1.301486
 H         1.968249         1.322583        -1.941834
 H         2.660674         2.868756         0.880106
