19
Iteration:  2338
 C        -0.028662        -0.662991         0.682986
 C         1.339739        -0.288796         0.114980
 C         2.750162         0.027830         0.844302
 C         3.528022        -0.791817        -0.247189
 C         2.259653        -0.495328        -1.138830
 O         2.140069        -1.255669        -2.283714
 C         2.390055         0.968673        -1.385097
 C         2.067618         1.092031         0.132874
 O         1.750189         2.249789         0.825395
 H        -0.419936         0.289840         1.146290
 H        -0.605696        -1.110126        -0.096991
 H         0.105881        -1.203388         1.595415
 H         2.956175        -0.103057         1.936186
 H         4.485731        -0.364507        -0.639477
 H         3.596718        -1.820075         0.086043
 H         2.052205        -0.582138        -3.035037
 H         3.426378         1.266853        -1.676224
 H         1.540304         1.417449        -1.921164
 H         2.593173         2.670170         0.998897
