19
Iteration:  4595
 C        -0.079909        -0.377733         0.450531
 C         1.294469        -0.200108         0.076754
 C         2.660321        -0.129170         0.910451
 C         3.342549        -0.922625        -0.069904
 C         2.352801        -0.515092        -1.108765
 O         2.146139        -1.363827        -2.293472
 C         2.485116         0.964570        -1.406933
 C         2.149926         1.075838         0.114351
 O         2.005914         2.403291         0.851422
 H        -0.823844         0.460020         0.144448
 H        -0.571141        -1.366258         0.091169
 H        -0.112406        -0.701306         1.533333
 H         2.987253        -0.096428         1.933450
 H         4.400152        -0.601067        -0.230945
 H         3.275972        -1.935906        -0.004770
 H         1.475278        -2.062895        -2.225613
 H         3.447813         1.442669        -1.782193
 H         1.635345         1.361316        -1.903327
 H         1.068207         2.692068         1.027517
