19
Iteration:  4156charge 0 multiplicity 1
 C        -0.095471        -0.271041         0.502247
 C         1.350168        -0.243581         0.057780
 C         2.665724        -0.131336         0.835958
 C         3.388550        -1.010028        -0.229541
 C         2.311996        -0.448375        -1.176782
 O         2.004757        -1.254633        -2.366750
 C         2.594423         1.036084        -1.328748
 C         2.186573         1.155210         0.214978
 O         1.852743         2.164612         0.973021
 H        -0.717297        -0.286163        -0.397868
 H        -0.370692        -1.207003         0.988247
 H        -0.298910         0.607642         1.079414
 H         2.601643        -0.147569         1.904554
 H         4.517911        -0.903160        -0.292498
 H         3.287288        -2.034857         0.019360
 H         2.453615        -2.125188        -2.294211
 H         3.465709         1.464749        -1.862153
 H         1.809779         1.378572        -2.029264
 H         2.365360         2.221528         1.779979
