19
Iteration:  4686charge 0 multiplicity 1
 C         0.004058        -0.582629         0.447504
 C         1.391302        -0.065396         0.018021
 C         2.645138        -0.044630         0.875915
 C         3.376018        -1.054490        -0.081305
 C         2.347984        -0.488342        -1.146494
 O         1.835865        -1.270856        -2.127785
 C         2.714465         0.980107        -1.352441
 C         2.151823         1.182797         0.148006
 O         1.903711         2.330061         0.806908
 H        -0.644235        -0.476707        -0.510694
 H        -0.100817        -1.723891         0.589991
 H        -0.391020        -0.198191         1.462164
 H         2.393280        -0.005286         1.978730
 H         4.426111        -1.022667        -0.299064
 H         3.078499        -2.145351         0.028053
 H         2.450283        -1.593665        -2.830092
 H         3.748763         1.351003        -1.388655
 H         2.124784         1.580344        -2.024156
 H         1.173913         2.735084         0.335898
