19
Iteration:  4979charge 0 multiplicity 1
 C        -0.035685        -0.433189         0.407537
 C         1.385093        -0.240414         0.110210
 C         2.641946        -0.021220         0.896317
 C         3.454889        -1.005456        -0.110781
 C         2.288256        -0.544100        -1.130968
 O         1.937782        -1.365226        -2.218307
 C         2.612486         0.955891        -1.271478
 C         2.167915         1.144994         0.146885
 O         1.902867         2.337071         0.795999
 H        -0.666075         0.201457        -0.251921
 H        -0.010862        -1.514296         0.156491
 H        -0.312669        -0.116876         1.486388
 H         2.713187         0.123208         1.949971
 H         4.492212        -0.635960        -0.269353
 H         3.388122        -2.008925         0.129554
 H         1.565733        -0.744257        -2.876487
 H         3.695699         1.059742        -1.610011
 H         2.055021         1.578480        -1.896330
 H         1.115751         2.789774         0.483356
