19
Iteration:  4022
 C         0.013081        -0.696870         0.448473
 C         1.359682        -0.109917        -0.021207
 C         2.595302        -0.234310         0.886136
 C         3.348571        -0.991638        -0.155139
 C         2.271387        -0.415184        -1.179213
 O         1.812732        -1.094381        -2.258139
 C         2.682103         1.060390        -1.342636
 C         2.192172         1.159754         0.161696
 O         1.943604         2.297631         0.934056
 H        -0.107488        -1.796565         0.524455
 H        -0.419080        -0.304626         1.382024
 H        -0.669230        -0.338891        -0.366934
 H         2.694868        -0.089556         1.934742
 H         4.564878        -0.860454        -0.281045
 H         3.170658        -2.118404        -0.150970
 H         2.420254        -1.837063        -2.413875
 H         3.765565         1.329838        -1.624526
 H         1.902355         1.648578        -1.831771
 H         2.678511         2.430605         1.544780
