19
Iteration:  4858
 C        -0.089631        -0.533452         0.404182
 C         1.330449        -0.149307         0.189704
 C         2.686210        -0.109402         0.896491
 C         3.333963        -1.028303        -0.086965
 C         2.371847        -0.575923        -1.141481
 O         2.012798        -1.344549        -2.234999
 C         2.572388         1.006725        -1.287610
 C         2.195579         1.134507         0.149051
 O         1.952689         2.458888         0.727643
 H        -0.712698         0.129327        -0.227914
 H        -0.196798        -1.621441         0.321732
 H        -0.311927        -0.231688         1.494113
 H         2.989293        -0.157950         1.955284
 H         4.461627        -0.672368        -0.249865
 H         3.167516        -2.042403         0.231617
 H         1.638484        -0.878721        -2.979651
 H         3.600201         1.142114        -1.805439
 H         1.787919         1.522282        -1.836540
 H         0.990469         2.611873         0.846838
