19
Iteration:   246
 C        -0.000182        -0.531936         0.025291
 C         1.353858        -0.025192        -0.048396
 C         2.534016        -0.025188         0.965574
 C         3.297134        -1.025768        -0.018601
 C         2.384315        -0.473303        -1.064281
 O         1.884893        -1.361314        -2.039503
 C         2.788268         1.016677        -1.280795
 C         2.207934         1.227520         0.147027
 O         1.829933         2.301134         0.791429
 H        -0.513107        -0.281973         1.001945
 H        -0.599702        -0.245702        -0.919622
 H         0.165844        -1.564215         0.065673
 H         2.414196        -0.252594         2.016372
 H         4.426133        -1.088479        -0.058659
 H         2.971250        -1.997303         0.266023
 H         2.722272        -1.848114        -2.367234
 H         3.864367         1.211415        -1.484329
 H         2.042733         1.524573        -1.893779
 H         1.938286         2.133127         1.745435
