19
Iteration:  2244
 C        -0.009553        -0.684626         0.577245
 C         1.465089        -0.219753         0.076343
 C         2.795507         0.033016         0.794599
 C         3.645556        -0.854421        -0.274686
 C         2.385261        -0.614790        -1.131150
 O         1.940601        -1.243351        -2.242691
 C         2.576740         1.021011        -1.336785
 C         2.046943         1.158432         0.119280
 O         1.532247         2.300450         0.866935
 H        -0.108583        -0.121436         1.479856
 H        -0.848911        -0.555203        -0.133328
 H        -0.045519        -1.696163         1.067812
 H         3.112849         0.072145         1.861604
 H         4.497582        -0.407494        -0.756187
 H         3.908707        -1.804806         0.263204
 H         1.017840        -1.187757        -2.303329
 H         3.643769         1.258909        -1.675295
 H         1.778448         1.459024        -2.063745
 H         2.263256         2.572004         1.477933
