19
Iteration:   369charge 0 multiplicity 1
 C        -0.173510        -0.214687         0.339879
 C         1.290587         0.038352         0.070245
 C         2.518501        -0.115195         0.857941
 C         3.254104        -1.020050        -0.046574
 C         2.429681        -0.547684        -1.165611
 O         2.362714        -1.431744        -2.193613
 C         2.709327         0.974180        -1.404779
 C         2.180255         1.094391         0.098807
 O         1.776527         2.180765         0.966653
 H        -0.673925         0.394609         1.116051
 H        -0.795560         0.016896        -0.653178
 H        -0.163984        -1.202181         0.740756
 H         2.570419         0.036993         1.936193
 H         4.320308        -0.900450        -0.020215
 H         2.992583        -2.102241         0.262218
 H         2.000943        -1.009203        -3.027974
 H         3.845632         1.142195        -1.510195
 H         2.063650         1.552447        -2.063269
 H         0.782193         2.136233         0.969232
