19
Iteration:   712charge 0 multiplicity 1
 C         0.077740        -0.647520         0.401338
 C         1.310380        -0.079617        -0.052704
 C         2.457495        -0.012585         0.832817
 C         3.237976        -1.084009        -0.027885
 C         2.380976        -0.539857        -1.148562
 O         2.135740        -1.196732        -2.332912
 C         2.744562         0.958094        -1.271048
 C         2.096882         1.247263         0.072433
 O         1.856964         2.328424         0.997879
 H        -0.021498        -0.132644         1.364323
 H        -0.863940        -0.380728        -0.249442
 H         0.127436        -1.726526         0.615110
 H         2.402133         0.094320         1.901814
 H         4.371010        -1.030786        -0.004932
 H         2.779908        -2.069726         0.192134
 H         1.845353        -2.062297        -2.178783
 H         3.776172         1.259301        -1.255671
 H         2.250150         1.271184        -2.246162
 H         1.444907         3.148531         0.653678
