19
Iteration:  1655
 C         0.036416        -0.538262         0.659497
 C         1.460676        -0.239693         0.183655
 C         2.812591         0.002027         0.808692
 C         3.489769        -0.975333        -0.227632
 C         2.351555        -0.487826        -1.071517
 O         1.983344        -1.204946        -2.224563
 C         2.541029         1.007555        -1.351953
 C         2.108489         1.138744         0.113629
 O         1.595076         2.288553         0.696856
 H        -0.129229        -0.083919         1.585509
 H        -0.588232        -0.237150        -0.182196
 H        -0.215911        -1.591859         0.738945
 H         3.050536        -0.040309         1.851009
 H         4.498857        -1.028702        -0.561760
 H         3.196800        -2.054853        -0.053496
 H         2.817305        -1.474180        -2.731852
 H         3.438727         1.457668        -1.717287
 H         1.841104         1.338216        -2.068267
 H         0.885112         2.069170         1.319896
