19
Iteration:  3516charge 0 multiplicity 1
 C         0.033785        -0.649999         0.608373
 C         1.412809        -0.279912         0.173743
 C         2.841724        -0.155714         0.805145
 C         3.481332        -0.900248        -0.364091
 C         2.315594        -0.375439        -1.209910
 O         1.909653        -1.078827        -2.353061
 C         2.313832         1.147381        -1.370474
 C         2.158696         1.049160         0.204213
 O         1.868962         2.177628         1.019568
 H        -0.098570        -0.097415         1.551186
 H        -0.738471        -0.386820        -0.161621
 H        -0.093438        -1.718360         0.877597
 H         3.003723        -0.217218         1.924831
 H         4.459530        -0.762474        -0.723578
 H         3.243479        -1.953107        -0.347937
 H         2.616354        -1.029900        -3.061130
 H         3.112104         1.802969        -1.865012
 H         1.326735         1.467576        -1.851339
 H         1.678488         1.865402         1.940698
