19
Iteration:  2777
 C        -0.028539        -0.651350         0.612618
 C         1.366608        -0.223214         0.179357
 C         2.820384        -0.021113         0.815032
 C         3.509513        -0.818440        -0.254169
 C         2.365163        -0.472218        -1.180389
 O         2.132134        -1.184312        -2.337348
 C         2.260106         1.053615        -1.355444
 C         2.027532         1.056799         0.131845
 O         1.813854         2.240046         0.905326
 H        -0.053368        -1.771142         0.457658
 H        -0.251086        -0.312453         1.619417
 H        -0.811295        -0.242162        -0.096273
 H         2.968016        -0.113950         1.877714
 H         4.432679        -0.390195        -0.661381
 H         3.430823        -1.904270        -0.017605
 H         2.019611        -2.056491        -1.984564
 H         2.959592         1.707227        -1.909426
 H         1.254777         1.176920        -1.802032
 H         2.727598         2.502053         1.150527
