19
Iteration:  1800
 C         0.103264        -0.729264         0.669147
 C         1.417567        -0.207294         0.129895
 C         2.735883         0.104672         0.840950
 C         3.538588        -0.870966        -0.208402
 C         2.375575        -0.572628        -1.100748
 O         1.892847        -1.273712        -2.292876
 C         2.571017         0.958475        -1.365631
 C         2.130434         1.163815         0.122774
 O         1.564386         2.326396         0.741599
 H        -0.035852        -0.437262         1.726171
 H        -0.772188        -0.397314         0.008449
 H         0.168768        -1.819761         0.753698
 H         2.825347        -0.014943         1.923691
 H         4.453327        -0.394328        -0.620991
 H         3.807424        -1.862346         0.151230
 H         1.893919        -0.642537        -3.043986
 H         3.622800         1.267248        -1.635873
 H         1.806944         1.432258        -1.936319
 H         2.092579         2.433652         1.542978
