19
Iteration:   651
 C        -0.127089        -0.591131         0.183211
 C         1.354628        -0.181784         0.151214
 C         2.618983        -0.198985         1.012439
 C         3.443616        -1.099538         0.012400
 C         2.434573        -0.532858        -1.059951
 O         2.061261        -1.149626        -2.352967
 C         2.536646         0.975789        -1.232566
 C         2.038309         1.178660         0.225248
 O         1.965489         2.533548         0.675877
 H        -0.637867        -0.095092         1.091785
 H        -0.694288        -0.126098        -0.700919
 H        -0.524433        -1.656735         0.192079
 H         2.595024        -0.228895         2.110523
 H         4.501530        -0.869628        -0.108952
 H         3.374555        -2.199561         0.147229
 H         2.160373        -2.087952        -2.464806
 H         3.557326         1.400430        -1.466908
 H         1.773787         1.280455        -1.940756
 H         1.540818         2.424897         1.575867
