19
Iteration:  1956
 C         0.122784        -0.830434         0.627587
 C         1.393862        -0.166596         0.119934
 C         2.763308         0.022852         0.779406
 C         3.472162        -0.850855        -0.220924
 C         2.349299        -0.513725        -1.196340
 O         1.965010        -1.382333        -2.150121
 C         2.595248         1.208293        -1.326209
 C         2.043852         1.172909         0.066700
 O         1.653032         2.305814         0.748114
 H        -0.208209        -0.623388         1.711514
 H        -0.804708        -0.551352         0.081863
 H         0.160375        -1.859366         0.370088
 H         2.930599         0.161168         1.884374
 H         4.534760        -0.562432        -0.486230
 H         3.463522        -1.866549         0.133335
 H         0.984776        -1.221289        -2.345891
 H         3.629770         1.577405        -1.517374
 H         2.003127         1.796458        -2.044993
 H         2.187168         2.433715         1.546963
