19
Iteration:  1434
 C        -0.110605        -0.382700         0.572722
 C         1.352362        -0.279641         0.184604
 C         2.759459        -0.110682         0.799450
 C         3.566422        -0.880790        -0.210783
 C         2.265341        -0.495661        -1.172938
 O         2.188443        -1.369037        -2.246144
 C         2.547369         1.016505        -1.298398
 C         2.127900         1.120316         0.147806
 O         1.650005         2.299505         0.751215
 H        -0.309791         0.233448         1.449090
 H        -0.787692         0.172348        -0.132736
 H        -0.456745        -1.510875         0.667707
 H         2.971427        -0.018222         1.856147
 H         4.427411        -0.424770        -0.641181
 H         3.650522        -2.031960        -0.008283
 H         1.235376        -1.682963        -2.445164
 H         3.590429         1.322522        -1.572349
 H         1.749844         1.435764        -2.043045
 H         2.079526         2.334720         1.625193
