19
Iteration:   361charge 0 multiplicity 1
 C        -0.114830        -0.217216         0.363192
 C         1.277457        -0.059568        -0.020695
 C         2.524911        -0.070341         0.914414
 C         3.202414        -1.049922        -0.042681
 C         2.359203        -0.504119        -1.208428
 O         2.439639        -1.441961        -2.217632
 C         2.706541         0.953649        -1.328040
 C         2.161446         1.194151         0.113817
 O         1.806495         2.220712         0.973467
 H        -0.496941         0.413594         1.144621
 H        -0.769347        -0.135301        -0.478272
 H        -0.383455        -1.263012         0.742033
 H         2.409772        -0.188503         1.986334
 H         4.296716        -1.018550        -0.153621
 H         2.890941        -2.139776         0.089812
 H         1.851693        -1.249978        -3.025552
 H         3.767690         1.059659        -1.667490
 H         1.948626         1.376231        -2.012932
 H         0.823713         2.294202         0.901208
