19
Iteration:  3868charge 0 multiplicity 1
 C        -0.016248        -0.687287         0.396292
 C         1.342959        -0.123980         0.052402
 C         2.721492        -0.195238         0.848455
 C         3.454717        -1.016970        -0.232492
 C         2.307543        -0.450316        -1.175518
 O         1.923484        -1.088814        -2.376787
 C         2.482528         1.076439        -1.225288
 C         2.221200         1.181008         0.240955
 O         1.887769         2.285607         0.986480
 H        -0.068215        -0.770183         1.483978
 H        -0.870497        -0.174934        -0.111135
 H        -0.174771        -1.821976         0.308726
 H         2.931357        -0.227658         1.940698
 H         4.477665        -0.905542        -0.357536
 H         3.159657        -2.020439        -0.102087
 H         0.995895        -1.332463        -2.337746
 H         3.482934         1.369100        -1.641783
 H         1.752415         1.433304        -1.939392
 H         2.824739         2.480546         1.252980
