19
Iteration:   676
 C        -0.123336        -0.711874         0.323506
 C         1.264624        -0.125277         0.074964
 C         2.479671        -0.156510         0.948203
 C         3.245893        -0.932195        -0.070973
 C         2.301790        -0.421383        -1.086204
 O         2.171578        -1.154400        -2.311241
 C         2.662411         0.984734        -1.138650
 C         2.184374         1.139834         0.206647
 O         2.073383         2.405844         0.648937
 H        -0.579676        -0.491212         1.291114
 H        -1.024296        -0.620121        -0.495891
 H        -0.011567        -1.775461         0.376483
 H         2.630133        -0.092808         2.030640
 H         4.315543        -0.697943        -0.248524
 H         3.162546        -2.087244         0.041320
 H         2.179995        -2.071940        -2.129981
 H         3.760241         1.201827        -1.368285
 H         1.983653         1.507010        -1.822014
 H         1.153503         2.365538         0.936684
