19
Iteration:  4047
 C         0.041716        -0.676874         0.387632
 C         1.401403        -0.041942         0.064421
 C         2.699417        -0.124082         0.868385
 C         3.302603        -1.111083        -0.205346
 C         2.313606        -0.464617        -1.194310
 O         1.753799        -1.178189        -2.282676
 C         2.707893         1.030046        -1.181033
 C         2.171752         1.185802         0.196623
 O         1.868644         2.315551         0.890469
 H        -0.033251        -1.708789        -0.159710
 H        -0.285526        -0.906130         1.469455
 H        -0.779178        -0.098915        -0.103976
 H         2.791304        -0.063987         2.029663
 H         4.445204        -1.034552        -0.386855
 H         3.112576        -2.135037         0.229529
 H         2.349219        -1.072204        -3.038573
 H         3.772492         1.319384        -1.255625
 H         1.989873         1.668110        -1.747412
 H         2.665538         2.843246         1.114233
