19
Iteration:  3052
 C         0.138174        -0.907405         0.556746
 C         1.410672        -0.221133         0.130288
 C         2.783768        -0.153095         0.855563
 C         3.454416        -0.857464        -0.330866
 C         2.220132        -0.350614        -1.166574
 O         2.001070        -1.169548        -2.338976
 C         2.396312         1.151601        -1.329418
 C         2.123154         1.147880         0.238533
 O         1.766568         2.383976         0.892052
 H        -0.746972        -0.242495         0.710686
 H        -0.110052        -1.685218        -0.170521
 H         0.283532        -1.472435         1.487958
 H         3.031623        -0.113867         1.916980
 H         4.468480        -0.724556        -0.683482
 H         3.509850        -1.888991        -0.168794
 H         1.307361        -1.779812        -2.120780
 H         3.359886         1.353336        -1.850090
 H         1.484590         1.545677        -1.869109
 H         2.467024         2.446980         1.553116
