19
Iteration:  1855
 C         0.085428        -0.585053         0.648714
 C         1.379460        -0.145545         0.166855
 C         2.827236        -0.058743         0.811214
 C         3.537839        -0.866653        -0.297264
 C         2.232314        -0.453827        -1.143931
 O         2.071115        -1.401117        -2.237516
 C         2.451750         1.036891        -1.366217
 C         2.109093         1.132273         0.190501
 O         1.559170         2.256997         0.815348
 H        -0.336192        -0.072310         1.574640
 H        -0.795280        -0.574339        -0.084175
 H         0.365947        -1.611546         0.904410
 H         3.109277        -0.068749         1.844768
 H         4.560051        -0.462231        -0.586879
 H         3.523640        -1.924192        -0.060750
 H         2.329384        -1.046434        -3.055734
 H         3.457968         1.376506        -1.756332
 H         1.602845         1.560677        -1.803282
 H         2.268115         2.978662         0.773820
