19
Iteration:  1778
 C         0.078377        -0.819097         0.617901
 C         1.406419        -0.182574         0.199622
 C         2.781275        -0.148842         0.844539
 C         3.490054        -0.796933        -0.231195
 C         2.299496        -0.386887        -1.109663
 O         1.994373        -1.331798        -2.145820
 C         2.484070         1.096870        -1.356279
 C         2.058862         1.148620         0.107459
 O         1.661064         2.350901         0.664240
 H        -0.224616        -0.508851         1.613482
 H        -0.669867        -0.458358        -0.153510
 H         0.145005        -1.903699         0.694385
 H         3.091261         0.021262         1.900115
 H         4.529765        -0.540085        -0.492366
 H         3.388558        -1.891802        -0.191093
 H         1.843713        -0.960893        -3.031863
 H         3.558490         1.309507        -1.461320
 H         1.829993         1.603155        -2.041746
 H         2.486940         2.660738         1.112533
