19
Iteration:  3820
 C        -0.028411        -0.787236         0.438068
 C         1.274226        -0.129349         0.050656
 C         2.695108        -0.196432         0.785608
 C         3.400928        -0.961895        -0.283917
 C         2.238725        -0.399973        -1.213885
 O         1.877208        -1.155648        -2.252481
 C         2.549050         1.106646        -1.275715
 C         2.177800         1.129240         0.234452
 O         2.005759         2.301212         1.019695
 H        -0.727864        -0.278251         1.106450
 H        -0.526821        -1.045666        -0.477548
 H         0.113394        -1.676044         1.004796
 H         2.899872        -0.190059         1.843420
 H         4.294591        -0.625350        -0.663358
 H         3.371924        -2.049679        -0.061873
 H         2.473591        -0.840367        -2.992627
 H         3.433992         1.740117        -1.513392
 H         1.633008         1.650331        -1.662063
 H         2.870985         2.427852         1.432743
