19
Iteration:  1372
 C         0.012667        -0.708503         0.375302
 C         1.414950        -0.159039         0.138169
 C         2.736931        -0.044276         0.922847
 C         3.426566        -0.947939        -0.051792
 C         2.341771        -0.456915        -1.098515
 O         1.944254        -1.196351        -2.256188
 C         2.560052         0.988882        -1.367446
 C         2.074475         1.148009         0.084260
 O         1.796655         2.357539         0.760514
 H        -0.505417        -0.139508         1.226225
 H        -0.726692        -0.603089        -0.484807
 H         0.102433        -1.749018         0.674452
 H         2.857109         0.057309         2.013836
 H         4.471718        -0.749539        -0.331514
 H         3.254141        -1.999286         0.249360
 H         1.682419        -2.114839        -1.885802
 H         3.536900         1.495846        -1.610149
 H         1.717671         1.199733        -1.990865
 H         2.603302         2.761621         1.140473
