19
Iteration:  3227
 C         0.053563        -0.880849         0.521895
 C         1.403970        -0.179708         0.190548
 C         2.766876        -0.117570         0.805719
 C         3.485581        -0.914631        -0.414530
 C         2.271382        -0.346587        -1.218068
 O         2.038952        -1.274054        -2.324715
 C         2.287126         1.236540        -1.238420
 C         2.147221         1.118591         0.310947
 O         1.862316         2.280581         0.975959
 H        -0.041953        -1.874714         0.050841
 H        -0.149709        -1.128805         1.552395
 H        -0.765409        -0.296495         0.149697
 H         2.976703        -0.175585         1.900810
 H         4.431966        -0.486513        -0.760130
 H         3.241402        -1.962234        -0.359219
 H         1.496704        -0.688349        -2.849459
 H         3.107539         1.602028        -1.809882
 H         1.337161         1.608809        -1.713724
 H         2.621355         2.877272         1.040844
