19
Iteration:  4848
 C        -0.064182        -0.425902         0.414988
 C         1.405368        -0.160373         0.154359
 C         2.762812        -0.150750         0.993205
 C         3.320704        -1.032195        -0.104366
 C         2.340924        -0.523291        -1.177806
 O         2.005587        -1.359836        -2.239659
 C         2.589261         0.916502        -1.319000
 C         2.115456         1.129115         0.210118
 O         1.910528         2.495059         0.741306
 H        -0.590428        -0.278095        -0.517194
 H        -0.189565        -1.504527         0.382498
 H        -0.493828        -0.180437         1.421409
 H         2.933113        -0.138251         2.071498
 H         4.457235        -0.987403        -0.532070
 H         3.325563        -2.110530         0.000115
 H         1.681089        -0.694287        -2.858713
 H         3.556444         1.512205        -1.702133
 H         1.745665         1.143584        -1.983600
 H         0.943883         2.608854         0.752023
