19
Iteration:  4224charge 0 multiplicity 1
 C         0.041909        -0.516454         0.342530
 C         1.398952        -0.090349         0.049665
 C         2.701142        -0.128149         0.919630
 C         3.354390        -1.084062        -0.088304
 C         2.320605        -0.430907        -1.111955
 O         1.741443        -1.237303        -2.252456
 C         2.721924         1.033202        -1.217723
 C         2.188915         1.109697         0.104290
 O         1.840309         2.279613         0.893492
 H        -0.827598         0.171274         0.304744
 H        -0.204828        -1.315973        -0.411693
 H         0.026164        -1.052044         1.290525
 H         2.503122        -0.262909         2.015272
 H         4.387051        -1.074762        -0.482400
 H         3.153002        -2.158529         0.111782
 H         2.176624        -0.866822        -3.029173
 H         3.738609         1.282519        -1.384611
 H         2.163385         1.564052        -2.025333
 H         2.492775         2.892396         0.497970
