19
Iteration:  4582charge 0 multiplicity 1
 C        -0.108432        -0.408994         0.509353
 C         1.343124        -0.182634         0.072483
 C         2.611780        -0.101970         0.888234
 C         3.401132        -1.001414        -0.159959
 C         2.294083        -0.530911        -1.173103
 O         2.168929        -1.346619        -2.252134
 C         2.521370         1.009089        -1.329497
 C         2.135127         1.168105         0.123962
 O         1.982780         2.339909         0.829813
 H        -0.648697         0.510430         0.213722
 H        -0.579727        -1.330703         0.071959
 H        -0.161222        -0.296723         1.586308
 H         2.584305         0.113454         2.069652
 H         4.470408        -0.808156        -0.514629
 H         3.322208        -2.019472         0.158920
 H         1.580470        -2.067586        -1.941731
 H         3.528050         1.311724        -1.757796
 H         1.755511         1.431034        -2.123334
 H         1.021249         2.418689         0.924012
