19
Iteration:  1147
 C        -0.068496        -0.647998         0.352528
 C         1.310550        -0.175302        -0.004512
 C         2.564188        -0.089149         0.905633
 C         3.380024        -0.955469        -0.022732
 C         2.339249        -0.456014        -1.106843
 O         2.001031        -1.240975        -2.336351
 C         2.672286         1.009278        -1.267278
 C         2.178039         1.181218         0.168640
 O         1.957735         2.380893         0.864188
 H        -0.387396        -0.130738         1.235692
 H        -0.866581        -0.657588        -0.458527
 H        -0.160636        -1.726142         0.666251
 H         2.627618        -0.045965         1.979645
 H         4.489724        -0.900276        -0.040466
 H         3.130245        -2.021141         0.155327
 H         2.171866        -2.162686        -2.163325
 H         3.729745         1.222125        -1.510279
 H         1.917076         1.610139        -1.900467
 H         1.166588         2.756865         0.394748
