19
Iteration:  1220
 C        -0.024830        -0.324298         0.332804
 C         1.400389        -0.190856         0.200786
 C         2.722064        -0.196226         0.953185
 C         3.515565        -0.960858        -0.134546
 C         2.353323        -0.572959        -1.131970
 O         2.085256        -1.239622        -2.268274
 C         2.499275         0.926483        -1.309349
 C         2.156288         1.093700         0.206630
 O         1.672134         2.328664         0.714259
 H        -0.395573         0.029735         1.296751
 H        -0.601165         0.049182        -0.426923
 H        -0.365088        -1.391391         0.357226
 H         2.912032         0.027180         1.994901
 H         4.586460        -0.630344        -0.304356
 H         3.595398        -2.006695         0.039884
 H         1.125986        -1.225365        -2.595698
 H         3.514433         1.277759        -1.528609
 H         1.719709         1.345931        -1.937126
 H         1.988418         2.367421         1.664287
