19
Iteration:  2319charge 0 multiplicity 1
 C        -0.011861        -0.581501         0.626420
 C         1.416988        -0.196654         0.350803
 C         2.775776        -0.024014         0.821883
 C         3.540598        -0.816696        -0.202031
 C         2.361679        -0.582543        -1.230547
 O         2.101465        -1.385587        -2.396125
 C         2.371757         1.042183        -1.446106
 C         1.971235         1.150064         0.118910
 O         1.729714         2.240805         0.973764
 H        -0.767773         0.277514         0.807229
 H        -0.283501        -1.021527        -0.374409
 H        -0.141277        -1.271722         1.492894
 H         3.166463         0.411750         1.738254
 H         4.531280        -0.484382        -0.546979
 H         3.574171        -1.908931         0.113843
 H         1.976828        -0.671421        -3.115530
 H         3.271498         1.599200        -1.628493
 H         1.447402         1.194754        -2.069143
 H         2.468640         2.857637         0.984792
