19
Iteration:  2923
 C         0.020759        -0.628391         0.740465
 C         1.348351        -0.275051         0.125030
 C         2.685110        -0.102818         0.752710
 C         3.552979        -0.706130        -0.253087
 C         2.296029        -0.495440        -1.228689
 O         2.143109        -1.231722        -2.398834
 C         2.284560         1.094001        -1.442231
 C         2.045516         1.128571         0.095754
 O         1.853725         2.207835         1.029991
 H         0.045195        -0.391408         1.814841
 H        -0.835797         0.007147         0.354684
 H        -0.145951        -1.699017         0.617232
 H         2.877012        -0.045362         1.863674
 H         4.320861        -0.168797        -0.784148
 H         3.563169        -1.776757         0.005615
 H         2.161194        -2.237399        -2.294394
 H         3.100095         1.669788        -1.854102
 H         1.352356         1.451712        -1.946999
 H         2.474345         1.969123         1.748192
