19
Iteration:  3970
 C        -0.095480        -0.411660         0.460979
 C         1.368367        -0.237410         0.177812
 C         2.725111        -0.228197         0.811524
 C         3.385746        -0.933055        -0.268655
 C         2.329660        -0.497962        -1.174791
 O         2.083140        -1.174944        -2.391796
 C         2.473304         1.031314        -1.287440
 C         2.219065         1.113586         0.242228
 O         1.876179         2.205311         0.972536
 H        -0.393060        -0.942936         1.412984
 H        -0.665066         0.506568         0.804363
 H        -0.629971        -0.761982        -0.431340
 H         2.987844        -0.260847         1.897218
 H         4.311471        -0.911673        -0.598311
 H         3.253739        -1.996231        -0.186877
 H         1.114196        -1.177203        -2.592114
 H         3.346845         1.564993        -1.674017
 H         1.618540         1.347394        -1.875006
 H         2.508263         2.672317         1.521913
