19
Iteration:  2627charge 0 multiplicity 1
 C        -0.049882        -0.875217         0.427292
 C         1.325439        -0.143685         0.100501
 C         2.768166        -0.087107         0.894773
 C         3.497554        -0.793053        -0.299616
 C         2.249743        -0.489182        -1.145740
 O         2.129654        -1.478282        -2.143426
 C         2.348385         1.199326        -1.320272
 C         2.150979         1.164310         0.182363
 O         1.854077         2.440303         0.891196
 H        -0.843647        -0.200594         0.122571
 H        -0.077658        -1.744594        -0.320027
 H        -0.102520        -1.272042         1.478726
 H         2.893661        -0.211565         2.007606
 H         4.486897        -0.417921        -0.608783
 H         3.697866        -1.893362        -0.273369
 H         1.243205        -1.253807        -2.442768
 H         3.335467         1.714066        -1.659485
 H         1.389567         1.567475        -1.798728
 H         2.417418         3.183967         0.579778
