19
Iteration:  1546
 C         0.090741        -0.833774         0.377892
 C         1.341234        -0.123808         0.169065
 C         2.643813        -0.050172         0.885429
 C         3.471561        -0.875636        -0.068425
 C         2.316183        -0.474707        -1.120377
 O         1.986422        -1.209464        -2.207379
 C         2.422066         0.939982        -1.389162
 C         2.228296         1.218863         0.081085
 O         1.824490         2.408746         0.753249
 H        -0.363538        -0.335093         1.339393
 H        -0.675983        -0.647162        -0.491921
 H         0.165617        -1.923759         0.685948
 H         2.708602        -0.020827         1.992879
 H         4.451475        -0.564396        -0.426971
 H         3.442047        -2.035822         0.085931
 H         1.338707        -1.875132        -2.003759
 H         3.442666         1.346331        -1.703895
 H         1.580454         1.384765        -1.890884
 H         2.430075         2.457672         1.557192
