19
Iteration:  2363charge 0 multiplicity 1
 C         0.102076        -0.725589         0.714629
 C         1.398678        -0.176035         0.155304
 C         2.662050        -0.200419         0.901076
 C         3.496852        -0.958916        -0.230907
 C         2.366661        -0.383953        -1.248279
 O         2.077396        -1.352170        -2.275882
 C         2.465642         1.141833        -1.310558
 C         2.100480         1.184972         0.143280
 O         1.641459         2.382047         0.677711
 H        -0.264522         0.066162         1.436035
 H        -0.530506        -0.964192        -0.159240
 H         0.407880        -1.464440         1.469505
 H         2.811810        -0.290459         1.938333
 H         4.483107        -0.491415        -0.298914
 H         3.483779        -2.084612        -0.334440
 H         1.465116        -0.892693        -2.957405
 H         3.442243         1.489007        -1.519664
 H         1.565802         1.553756        -1.847443
 H         2.180722         2.587545         1.451000
