19
Iteration:  2912charge 0 multiplicity 1
 C         0.037209        -0.675238         0.754101
 C         1.382345        -0.301945         0.120500
 C         2.725861        -0.073734         0.838455
 C         3.470647        -0.731379        -0.342678
 C         2.314411        -0.417492        -1.279243
 O         2.110673        -1.234395        -2.396006
 C         2.341786         1.072394        -1.449335
 C         1.988327         1.079103         0.136986
 O         1.820758         2.288315         1.004064
 H         0.161423        -0.642960         1.833606
 H        -0.743662         0.063559         0.396716
 H        -0.421902        -1.644146         0.521814
 H         2.984299        -0.211211         1.931603
 H         4.506989        -0.347591        -0.341508
 H         3.739659        -1.820965        -0.290716
 H         2.164716        -2.128046        -1.993456
 H         3.317577         1.382953        -1.758255
 H         1.485024         1.516470        -2.006100
 H         2.431419         2.126996         1.730621
