19
Iteration:   531charge 0 multiplicity 1
 C        -0.191179        -0.428998         0.340391
 C         1.266489        -0.131304         0.122683
 C         2.587484        -0.122280         0.978391
 C         3.354217        -1.148257         0.007863
 C         2.456949        -0.620935        -1.123211
 O         2.171630        -1.141664        -2.448198
 C         2.641222         0.992066        -1.179020
 C         2.121004         1.084864         0.187866
 O         1.894809         2.440569         0.715842
 H        -0.760341         0.089043         1.151426
 H        -0.725255        -0.189892        -0.659056
 H        -0.417384        -1.432391         0.556453
 H         2.806906        -0.015893         2.031402
 H         4.452090        -1.064328        -0.241903
 H         3.222558        -2.158849         0.459811
 H         2.609688        -2.050831        -2.567542
 H         3.665609         1.344243        -1.485056
 H         1.786470         1.375347        -1.756466
 H         1.132910         2.401149         1.311309
