19
Iteration:  1661charge 0 multiplicity 1
 C         0.084657        -0.513006         0.625338
 C         1.429098        -0.198325         0.164207
 C         2.836005        -0.075558         0.839332
 C         3.478310        -0.954499        -0.226614
 C         2.346361        -0.472898        -1.138190
 O         1.975703        -1.197864        -2.208170
 C         2.526089         0.968078        -1.338023
 C         2.128803         1.089767         0.117941
 O         1.579040         2.333435         0.701689
 H        -0.275201        -0.148071         1.672491
 H        -0.600756        -0.259905        -0.207294
 H         0.038989        -1.649027         0.768806
 H         3.050199         0.055249         1.919761
 H         4.536698        -0.929911        -0.677443
 H         3.262937        -1.975157         0.099833
 H         2.812822        -1.491338        -2.521825
 H         3.554111         1.313349        -1.677489
 H         1.630473         1.355419        -1.966678
 H         0.817466         2.017120         1.272079
