19
Iteration:   163
 C        -0.131054        -0.307820         0.422642
 C         1.307923        -0.085003        -0.014564
 C         2.585123        -0.095838         0.974331
 C         3.227311        -1.156822         0.001796
 C         2.438913        -0.579826        -1.130549
 O         2.405876        -1.265808        -2.388048
 C         2.684173         0.901300        -1.311995
 C         2.138062         1.169120         0.141970
 O         1.653086         2.364780         0.819519
 H        -0.434016         0.458153         1.104681
 H        -0.874364        -0.081625        -0.390779
 H        -0.463822        -1.369692         0.905403
 H         2.468307        -0.230035         2.062605
 H         4.302451        -1.163845        -0.016891
 H         2.803565        -2.208136         0.279126
 H         1.892072        -2.042847        -2.301224
 H         3.682851         1.315448        -1.565424
 H         1.935309         1.263222        -2.001959
 H         2.409586         2.909533         1.119237
