19
Iteration:   916charge 0 multiplicity 1
 C         0.055478        -0.724799         0.445792
 C         1.322100        -0.013715         0.051523
 C         2.571000        -0.090370         0.959524
 C         3.251662        -0.976273        -0.070701
 C         2.283787        -0.464046        -1.121570
 O         2.073645        -1.183786        -2.349803
 C         2.738719         1.030535        -1.253768
 C         2.210180         1.158443         0.172402
 O         1.751419         2.333906         0.679397
 H        -0.244643        -0.257163         1.383255
 H        -0.745634        -0.525009        -0.322409
 H         0.227798        -1.837777         0.524560
 H         2.907841        -0.253119         1.978819
 H         4.310256        -1.141960        -0.224044
 H         2.948163        -2.058780         0.204916
 H         1.745355        -2.019545        -2.099953
 H         3.817586         1.174877        -1.347807
 H         2.090680         1.553865        -1.990065
 H         2.202916         2.513213         1.518141
