19
Iteration:  4871
 C        -0.089188        -0.548852         0.473976
 C         1.336779        -0.118672         0.104457
 C         2.607687        -0.073527         0.899188
 C         3.426822        -0.994527        -0.082031
 C         2.225799        -0.465671        -1.086355
 O         2.044381        -1.370130        -2.204428
 C         2.595614         0.989986        -1.338475
 C         2.191150         1.173557         0.115731
 O         2.020816         2.340739         0.722880
 H        -0.847317        -0.033840        -0.099746
 H        -0.330967        -1.531312         0.099153
 H        -0.343534        -0.567467         1.527522
 H         2.566342         0.102302         1.942517
 H         4.565512        -1.025266        -0.356875
 H         3.234446        -2.062618         0.165059
 H         1.627797        -0.724397        -2.832750
 H         3.644170         1.454340        -1.417427
 H         1.915450         1.456180        -2.065071
 H         1.064259         2.423466         0.817644
