19
Iteration:  4748
 C        -0.070308        -0.449623         0.519506
 C         1.307024        -0.146955         0.190827
 C         2.633862        -0.183782         0.898870
 C         3.367785        -1.008453        -0.106804
 C         2.298501        -0.539249        -1.206013
 O         2.123437        -1.307665        -2.226710
 C         2.540698         1.045425        -1.321354
 C         2.170362         1.106338         0.082143
 O         1.985241         2.369982         0.803551
 H        -0.443196        -0.884274        -0.442108
 H        -0.281220        -1.259283         1.186194
 H        -0.650655         0.467162         0.538294
 H         2.845887        -0.154416         1.971702
 H         4.541714        -0.807393        -0.125320
 H         3.125676        -2.022346         0.062199
 H         1.297549        -1.149881        -2.747414
 H         3.609007         1.460939        -1.604060
 H         1.699078         1.356396        -1.956525
 H         1.219068         2.680214         0.319571
