19
Iteration:  4445charge 0 multiplicity 1
 C        -0.120527        -0.628698         0.318118
 C         1.314213        -0.118352         0.072587
 C         2.682096        -0.049787         0.934860
 C         3.322206        -0.930549        -0.093570
 C         2.299739        -0.461766        -1.163729
 O         2.050508        -1.364994        -2.169564
 C         2.563741         0.981510        -1.383982
 C         2.164330         1.173431         0.194389
 O         2.124883         2.330390         0.851364
 H        -0.627810        -1.348249        -0.290206
 H        -0.256384        -0.959503         1.311270
 H        -0.775918         0.263655         0.256867
 H         2.765282         0.023357         1.940493
 H         4.413555        -0.910605        -0.089532
 H         2.896232        -2.027449        -0.219424
 H         1.097688        -1.396996        -2.338942
 H         3.582280         1.413117        -1.589877
 H         1.585418         1.447085        -1.911567
 H         1.487283         3.028079         0.594426
