19
Iteration:  2221
 C         0.177636        -0.697198         0.613916
 C         1.476480        -0.142152         0.170285
 C         2.742761        -0.002033         0.882859
 C         3.475949        -0.868720        -0.176690
 C         2.337912        -0.428149        -1.185368
 O         2.016888        -1.277124        -2.245279
 C         2.486050         1.114453        -1.412365
 C         2.060709         1.082242         0.095733
 O         1.587239         2.207451         0.790377
 H        -0.038946        -0.580635         1.714763
 H        -0.634450        -0.341730        -0.058345
 H         0.188710        -1.803723         0.602182
 H         3.045960         0.121281         1.959086
 H         4.540432        -0.837688        -0.426719
 H         3.126522        -1.921152        -0.004319
 H         1.066846        -1.247132        -2.574803
 H         3.552302         1.476026        -1.625945
 H         1.663685         1.465279        -2.181434
 H         2.388651         2.654543         1.121818
