19
Iteration:  3350
 C         0.128283        -0.655986         0.592909
 C         1.470637        -0.223838         0.101443
 C         2.809680        -0.162603         0.758312
 C         3.524791        -0.900011        -0.356529
 C         2.314866        -0.399490        -1.209505
 O         1.825091        -1.074499        -2.341666
 C         2.367940         1.122730        -1.254070
 C         2.111320         1.062112         0.233756
 O         1.799880         2.169138         0.991856
 H         0.200681        -0.987491         1.651141
 H        -0.688110         0.072420         0.462335
 H        -0.303817        -1.512764         0.080710
 H         3.130520        -0.107169         1.761728
 H         4.514054        -0.539552        -0.726586
 H         3.447420        -1.975616        -0.249848
 H         2.617776        -1.096801        -2.911659
 H         3.263868         1.595790        -1.703364
 H         1.483406         1.541142        -1.823376
 H         1.260282         1.955202         1.771448
