19
Iteration:  2014charge 0 multiplicity 1
 C         0.015702        -0.710168         0.650835
 C         1.462706        -0.237932         0.288705
 C         2.864306        -0.061374         0.883270
 C         3.443292        -0.875264        -0.274026
 C         2.265440        -0.445711        -1.190715
 O         2.160455        -1.335669        -2.285092
 C         2.428622         1.089794        -1.389089
 C         1.977795         1.140250         0.125533
 O         1.648995         2.344521         0.792838
 H        -0.255415        -0.360092         1.700846
 H        -0.677408        -0.367346        -0.152536
 H         0.039196        -1.827203         0.921656
 H         3.182750         0.132882         1.877533
 H         4.542095        -0.747441        -0.423305
 H         3.185825        -1.993736        -0.071734
 H         1.704250        -1.071635        -3.049321
 H         3.444514         1.341973        -1.716814
 H         1.604348         1.570688        -1.978550
 H         2.440847         2.953366         0.746584
