19
Iteration:  3242charge 0 multiplicity 1
 C         0.101620        -0.874860         0.511235
 C         1.378763        -0.228786         0.196452
 C         2.775960        -0.193148         0.814151
 C         3.388961        -0.816490        -0.398865
 C         2.209789        -0.388858        -1.240190
 O         2.082663        -1.206068        -2.348633
 C         2.311216         1.118678        -1.295510
 C         2.104005         1.182226         0.228926
 O         1.883214         2.373870         1.044941
 H         0.209697        -1.939572         0.305476
 H        -0.064325        -0.741032         1.623069
 H        -0.717479        -0.475380        -0.116002
 H         3.056880        -0.224015         1.848609
 H         4.485301        -0.652664        -0.748366
 H         3.433319        -1.927699        -0.309183
 H         1.171447        -1.395868        -2.716874
 H         3.237214         1.591013        -1.564765
 H         1.439425         1.650450        -1.728031
 H         2.711357         2.424696         1.583746
