19
Iteration:  2369
 C         0.142736        -0.744591         0.686072
 C         1.425856        -0.208948         0.171107
 C         2.706476        -0.165030         0.916071
 C         3.477299        -0.982715        -0.211826
 C         2.327373        -0.410542        -1.282815
 O         2.059640        -1.351885        -2.293379
 C         2.497596         1.142496        -1.386501
 C         2.095071         1.209791         0.195698
 O         1.600454         2.432743         0.699829
 H        -0.256493         0.065329         1.304769
 H        -0.708654        -0.894622        -0.001480
 H         0.431523        -1.666158         1.240278
 H         2.844152        -0.273639         2.050964
 H         4.603575        -0.819011        -0.286762
 H         3.412026        -2.058228        -0.209930
 H         1.307629        -1.075040        -2.780764
 H         3.593899         1.515687        -1.445807
 H         1.787791         1.777956        -1.919589
 H         2.009826         2.620835         1.590544
