19
Iteration:  3760
 C         0.020677        -0.453555         0.551645
 C         1.474737        -0.186425         0.187170
 C         2.842865        -0.227215         0.786330
 C         3.486625        -1.012381        -0.378414
 C         2.267563        -0.378563        -1.222905
 O         1.891557        -1.060012        -2.358806
 C         2.619648         1.054318        -1.222960
 C         2.189635         1.056943         0.197747
 O         1.599123         2.104526         0.976634
 H        -0.434540         0.531861         0.723336
 H        -0.518231        -0.913916        -0.324502
 H        -0.009416        -1.258685         1.344496
 H         2.956922        -0.359591         1.902231
 H         4.642151        -0.712368        -0.838277
 H         3.599244        -2.126590        -0.265617
 H         0.955620        -1.231957        -2.183656
 H         3.605895         1.499697        -1.471311
 H         1.833105         1.549344        -1.774252
 H         2.350826         2.641366         1.328918
