19
Iteration:  4260charge 0 multiplicity 1
 C        -0.056943        -0.634131         0.321713
 C         1.358885        -0.100686         0.099043
 C         2.672821        -0.119710         0.926501
 C         3.326908        -1.045791        -0.126503
 C         2.325084        -0.463094        -1.090979
 O         1.836073        -1.214538        -2.155168
 C         2.699420         1.003353        -1.377405
 C         2.196869         1.170370         0.134993
 O         1.920083         2.366018         0.844435
 H        -0.763914         0.001756         0.914835
 H        -0.413272        -0.932215        -0.747026
 H         0.122821        -1.695923         0.805851
 H         2.515866        -0.141531         2.087227
 H         4.351008        -1.011206        -0.492501
 H         2.865682        -2.123580        -0.109471
 H         2.138258        -0.926640        -3.022323
 H         3.798098         1.220795        -1.425420
 H         2.025257         1.625892        -2.076526
 H         2.640442         2.414040         1.506796
