19
Iteration:  4293charge 0 multiplicity 1
 C        -0.141458        -0.549019         0.372087
 C         1.317191        -0.218415         0.042222
 C         2.635374        -0.124563         0.976684
 C         3.410991        -0.963136        -0.097406
 C         2.307960        -0.589637        -1.182639
 O         1.914457        -1.293359        -2.267388
 C         2.565580         1.043173        -1.296718
 C         2.214544         1.123046         0.223746
 O         2.065457         2.438534         0.787335
 H        -0.454132        -0.336701         1.412572
 H        -0.934786        -0.067020        -0.319151
 H        -0.313174        -1.685455         0.253943
 H         2.605797        -0.138271         2.113336
 H         4.463536        -0.814897        -0.328941
 H         3.253332        -2.111013        -0.042957
 H         2.333522        -0.849816        -3.012650
 H         3.515211         1.448034        -1.581574
 H         1.861227         1.660004        -1.925851
 H         1.934419         2.485467         1.765674
