19
Iteration:  1917
 C         0.111267        -0.711907         0.460378
 C         1.499769        -0.171429         0.309402
 C         2.776123        -0.079934         0.848562
 C         3.503859        -0.837072        -0.214391
 C         2.318201        -0.443736        -1.105525
 O         1.994849        -1.376270        -2.156833
 C         2.358913         1.075702        -1.413694
 C         2.108418         1.174997         0.082539
 O         1.650585         2.325234         0.812946
 H        -0.449107        -0.458853         1.317900
 H        -0.345608        -0.575937        -0.511569
 H         0.300597        -1.817978         0.672858
 H         3.105836         0.005336         1.871739
 H         4.498937        -0.554371        -0.526702
 H         3.594709        -1.960212        -0.029646
 H         1.453808        -0.916371        -2.767472
 H         3.180973         1.496035        -2.022743
 H         1.371387         1.254328        -1.920627
 H         2.497066         2.834760         0.931781
