19
Iteration:  2848charge 0 multiplicity 1
 C         0.204519        -0.838454         0.505058
 C         1.536584        -0.218531         0.150425
 C         2.846701         0.016578         0.836157
 C         3.552503        -1.011849        -0.188311
 C         2.359556        -0.541717        -1.153463
 O         1.699684        -1.000173        -2.236718
 C         2.585687         1.152372        -1.353163
 C         2.065201         1.143469         0.101772
 O         1.577891         2.227733         0.896881
 H         0.217386        -1.468201         1.333896
 H        -0.517160        -0.014713         0.558901
 H        -0.063603        -1.537614        -0.258762
 H         3.077297        -0.012684         1.927424
 H         4.562451        -0.619213        -0.494561
 H         3.319850        -2.051648         0.231318
 H         1.509826        -1.912500        -2.327001
 H         3.536231         1.540927        -1.650608
 H         1.909271         1.485038        -2.150062
 H         1.845594         3.106552         0.600477
