19
Iteration:   454charge 0 multiplicity 1
 C        -0.042034        -0.618892         0.068558
 C         1.312120        -0.166311         0.028535
 C         2.591336        -0.065978         0.926029
 C         3.269883        -1.053626         0.011429
 C         2.394069        -0.515169        -1.041067
 O         1.939871        -1.236765        -2.138208
 C         2.761977         1.026844        -1.219411
 C         2.141039         1.192262         0.093813
 O         1.868402         2.334267         0.861412
 H        -0.433239        -0.326386         1.085531
 H        -0.676499        -0.065249        -0.705952
 H        -0.225158        -1.674927        -0.009929
 H         2.535171         0.204484         1.991178
 H         4.388267        -0.975542        -0.052803
 H         3.054348        -2.089229         0.321204
 H         2.725432        -1.355879        -2.643663
 H         3.852177         1.228130        -1.300061
 H         2.110242         1.323028        -2.075959
 H         2.250153         3.153000         0.525290
