19
Iteration:  2332
 C        -0.036918        -0.640319         0.667982
 C         1.386083        -0.285462         0.186663
 C         2.796297         0.039731         0.856907
 C         3.510660        -0.791595        -0.217511
 C         2.299082        -0.495443        -1.128847
 O         2.126370        -1.293349        -2.362582
 C         2.357752         0.964938        -1.347760
 C         2.032751         1.129041         0.058841
 O         1.750408         2.245022         0.892272
 H        -0.466251         0.334403         0.944188
 H        -0.692583        -1.171361        -0.081305
 H        -0.114545        -1.334600         1.583498
 H         2.957739         0.134729         1.905792
 H         4.450133        -0.343243        -0.531189
 H         3.641602        -1.900013        -0.055467
 H         2.064034        -0.713916        -3.099429
 H         3.348139         1.141594        -1.799711
 H         1.667794         1.438208        -2.084410
 H         2.622697         2.699505         0.941421
