19
Iteration:  2895charge 0 multiplicity 1
 C         0.055561        -0.726282         0.721509
 C         1.410646        -0.220052         0.153792
 C         2.748044        -0.142252         0.758086
 C         3.523579        -0.831590        -0.357925
 C         2.288334        -0.435676        -1.205750
 O         2.033080        -1.202669        -2.355173
 C         2.423650         1.143582        -1.268340
 C         2.085137         1.105044         0.188471
 O         1.697819         2.298077         0.843402
 H         0.120466        -1.082682         1.776545
 H        -0.703005         0.029361         0.583803
 H        -0.256746        -1.691129         0.259962
 H         2.974053        -0.171410         1.795389
 H         4.427216        -0.439451        -0.876702
 H         3.413119        -1.906793        -0.152827
 H         2.141961        -2.151942        -2.094974
 H         3.431774         1.602461        -1.517457
 H         1.630096         1.607325        -1.865564
 H         2.360350         2.543068         1.503239
