19
Iteration:  3880charge 0 multiplicity 1
 C        -0.013362        -0.665182         0.463887
 C         1.426552        -0.197897         0.095554
 C         2.744371        -0.194392         0.868716
 C         3.420326        -1.028976        -0.226746
 C         2.302856        -0.402503        -1.188113
 O         1.898959        -1.046772        -2.350737
 C         2.592203         1.086271        -1.362919
 C         2.207687         1.100014         0.188059
 O         1.817146         2.259844         0.988482
 H        -0.193447        -0.566321         1.545085
 H        -0.754049         0.119372         0.141446
 H        -0.222635        -1.597155        -0.137945
 H         2.708897        -0.316281         1.934714
 H         4.403347        -0.972317        -0.591608
 H         3.184217        -2.053773        -0.056978
 H         1.160566        -1.644171        -2.084954
 H         3.573462         1.479488        -1.623863
 H         1.769152         1.577089        -1.830503
 H         2.408673         2.774016         1.546896
