19
Iteration:  3125
 C         0.119019        -0.646762         0.601598
 C         1.440503        -0.167921         0.163254
 C         2.888819        -0.144662         0.820154
 C         3.547029        -0.838991        -0.332058
 C         2.270210        -0.433023        -1.241552
 O         1.889852        -1.170344        -2.375821
 C         2.372301         1.094025        -1.307512
 C         2.124054         1.090130         0.219046
 O         1.620631         2.174328         0.967828
 H        -0.702613        -0.214685         0.014429
 H         0.090752        -1.731309         0.609242
 H        -0.115709        -0.288502         1.644689
 H         3.160226        -0.055130         1.871807
 H         4.598697        -0.702064        -0.634985
 H         3.585617        -1.968703        -0.433769
 H         2.662272        -1.772789        -2.557827
 H         3.253530         1.598438        -1.699911
 H         1.469289         1.494080        -1.621604
 H         2.331217         2.715450         1.369383
