19
Iteration:  3363
 C         0.095259        -0.716405         0.591502
 C         1.362530        -0.270354         0.006795
 C         2.784403        -0.182024         0.811353
 C         3.504650        -0.797425        -0.370041
 C         2.253022        -0.442650        -1.249798
 O         1.862719        -1.169962        -2.332374
 C         2.408325         1.157203        -1.351801
 C         2.143059         1.119077         0.206023
 O         1.888744         2.236302         1.129166
 H         0.200714        -0.664223         1.646132
 H        -0.585327         0.102094         0.499831
 H        -0.126783        -1.681517         0.214572
 H         2.819798        -0.497535         1.871636
 H         4.495510        -0.231723        -0.605317
 H         3.807833        -1.829716        -0.116880
 H         2.332573        -1.026454        -3.173888
 H         3.311084         1.612015        -1.620147
 H         1.516328         1.458173        -1.855004
 H         1.246939         1.861191         1.773262
