19
Iteration:  2211
 C         0.139255        -0.744639         0.607545
 C         1.411223        -0.155871         0.126555
 C         2.794526        -0.059751         0.913393
 C         3.400257        -0.926443        -0.184425
 C         2.340296        -0.423066        -1.214782
 O         2.071777        -1.332690        -2.228323
 C         2.444206         1.154401        -1.383121
 C         2.135937         1.203678         0.130645
 O         1.608888         2.231332         0.768649
 H         0.138447        -0.558769         1.667679
 H        -0.864596        -0.501009         0.235643
 H         0.334490        -1.790789         0.349187
 H         3.051460         0.153171         1.994279
 H         4.459109        -0.870657        -0.434663
 H         3.232128        -1.997136         0.123680
 H         1.224004        -1.048467        -2.613684
 H         3.326453         1.573454        -1.944531
 H         1.547969         1.753280        -1.792273
 H         2.329208         2.895681         0.928075
