19
Iteration:  1665charge 0 multiplicity 1
 C         0.108089        -0.520213         0.604703
 C         1.428311        -0.161078         0.155623
 C         2.851635        -0.125678         0.882051
 C         3.475405        -0.944287        -0.226763
 C         2.337420        -0.481172        -1.176282
 O         1.960430        -1.210640        -2.212629
 C         2.508300         0.983153        -1.332729
 C         2.137308         1.094858         0.125307
 O         1.577961         2.347940         0.703295
 H        -0.287940        -0.151457         1.484318
 H        -0.674563        -0.256586        -0.089085
 H         0.188284        -1.625011         0.760374
 H         3.036733         0.067682         1.917220
 H         4.455136        -0.731778        -0.629835
 H         3.330354        -1.997875         0.207608
 H         2.856304        -1.621193        -2.508939
 H         3.509398         1.191478        -1.615723
 H         1.640885         1.340805        -1.842184
 H         0.828411         2.020105         1.187732
