19
Iteration:  2479
 C        -0.049292        -0.679563         0.452013
 C         1.381874        -0.213836         0.159234
 C         2.781977         0.051005         0.865382
 C         3.515108        -0.822206        -0.184363
 C         2.326667        -0.481156        -1.114789
 O         2.132255        -1.417167        -2.171622
 C         2.352108         1.043780        -1.446335
 C         2.086159         1.175213         0.150049
 O         1.771287         2.297189         0.923116
 H        -0.205310        -1.078573         1.514141
 H        -0.743189         0.081885         0.072419
 H        -0.297337        -1.617389        -0.119258
 H         3.091869         0.158754         1.911391
 H         4.594633        -0.642254        -0.519065
 H         3.361139        -1.883012         0.096775
 H         1.580119        -1.053790        -2.947132
 H         3.342738         1.333307        -1.992453
 H         1.423528         1.340972        -2.012352
 H         2.323088         2.967385         0.522756
