19
Iteration:   552charge 0 multiplicity 1
 C        -0.170648        -0.335466         0.319550
 C         1.310502        -0.187574         0.135923
 C         2.612596        -0.203628         0.977647
 C         3.367976        -1.024175        -0.012390
 C         2.334474        -0.514981        -1.094455
 O         2.254954        -1.110739        -2.343831
 C         2.619117         0.892176        -1.299408
 C         2.221492         1.129421         0.143850
 O         1.818868         2.289057         0.788891
 H        -0.509521         0.405877         1.099906
 H        -0.651453        -0.092283        -0.660246
 H        -0.525057        -1.279713         0.737198
 H         2.633796        -0.276883         2.061021
 H         4.452536        -0.802776        -0.156172
 H         3.334986        -2.111659         0.108847
 H         1.844591        -1.949217        -2.282370
 H         3.680034         1.072724        -1.569973
 H         1.812788         1.279576        -1.961285
 H         0.876463         2.409604         0.564449
