19
Iteration:  2567charge 0 multiplicity 1
 C         0.122148        -0.673416         0.645444
 C         1.423751        -0.231423         0.108418
 C         2.794049        -0.060997         0.864685
 C         3.518152        -0.887555        -0.145575
 C         2.431389        -0.488507        -1.149775
 O         1.943868        -1.165795        -2.313367
 C         2.517817         1.033598        -1.384660
 C         2.177143         1.167044         0.087288
 O         1.502592         2.300916         0.758962
 H        -0.531224         0.243701         0.941741
 H        -0.500061        -1.231638        -0.057801
 H         0.120687        -1.371667         1.513182
 H         2.977584        -0.159004         1.891904
 H         4.590352        -0.678032        -0.381426
 H         3.168306        -1.871160         0.171382
 H         1.609192        -2.103630        -2.124442
 H         3.546184         1.262649        -1.717375
 H         1.885532         1.442576        -2.184981
 H         1.831480         2.580122         1.607217
