19
Iteration:   527
 C        -0.169037        -0.455822         0.325989
 C         1.234090        -0.146067         0.119618
 C         2.600803        -0.135887         0.959818
 C         3.327562        -1.133404         0.025845
 C         2.448087        -0.575351        -1.159607
 O         2.162210        -1.161434        -2.424160
 C         2.648424         0.972541        -1.158285
 C         2.103529         1.138622         0.174798
 O         1.910247         2.427097         0.700568
 H        -0.596191         0.147792         1.172599
 H        -0.591914        -0.166698        -0.552660
 H        -0.382080        -1.584309         0.544896
 H         2.786089        -0.069388         2.060165
 H         4.416379        -1.087331        -0.130638
 H         3.142846        -2.130297         0.345514
 H         2.682531        -1.958999        -2.527994
 H         3.633627         1.375106        -1.303857
 H         1.853145         1.411155        -1.827841
 H         1.242467         2.417820         1.438593
