19
Iteration:   536charge 0 multiplicity 1
 C        -0.226137        -0.381850         0.335931
 C         1.315144        -0.132044         0.138098
 C         2.579839        -0.123350         0.985308
 C         3.389861        -1.147904        -0.007047
 C         2.429170        -0.641556        -1.083895
 O         2.195173        -1.122113        -2.455770
 C         2.642795         0.988163        -1.224037
 C         2.147935         1.053366         0.212800
 O         1.878493         2.432901         0.730109
 H        -0.826452         0.122220         1.089666
 H        -0.811150        -0.239933        -0.590267
 H        -0.417894        -1.504915         0.567619
 H         2.754313        -0.010519         2.067453
 H         4.421915        -0.976608        -0.290769
 H         3.225823        -2.147612         0.449622
 H         2.425650        -2.056485        -2.535058
 H         3.587982         1.328497        -1.651212
 H         1.811227         1.348433        -1.844164
 H         0.981622         2.368976         1.166760
