19
Iteration:  1807charge 0 multiplicity 1
 C         0.161439        -0.688736         0.675947
 C         1.432509        -0.168017         0.085131
 C         2.780429         0.014375         0.780009
 C         3.599836        -0.847288        -0.115484
 C         2.352583        -0.580895        -1.109462
 O         1.883937        -1.270310        -2.317752
 C         2.505267         0.958872        -1.326047
 C         2.096791         1.210951         0.086271
 O         1.548339         2.301455         0.749378
 H        -0.060248        -0.349095         1.666124
 H        -0.621924        -0.245434         0.085222
 H         0.170764        -1.853086         0.812656
 H         2.764337        -0.041411         1.895112
 H         4.592659        -0.535025        -0.411690
 H         3.558797        -1.927900         0.307914
 H         1.843110        -0.634350        -3.116880
 H         3.567006         1.192237        -1.467421
 H         1.695402         1.347347        -2.030195
 H         2.075762         2.328288         1.538055
