19
Iteration:  2997charge 0 multiplicity 1
 C         0.172459        -0.744492         0.580095
 C         1.447250        -0.218001         0.088685
 C         2.869152        -0.074427         0.848650
 C         3.571310        -0.891702        -0.330569
 C         2.352344        -0.439916        -1.118713
 O         1.675692        -1.004714        -2.267243
 C         2.623004         1.088511        -1.290500
 C         2.181064         1.143857         0.169379
 O         1.522668         2.121510         0.885393
 H        -0.556212         0.089118         0.762443
 H        -0.330721        -1.345630        -0.221094
 H         0.322584        -1.521547         1.340227
 H         3.070348        -0.296878         1.926519
 H         4.562670        -0.579585        -0.563052
 H         3.502333        -1.900642         0.066705
 H         1.822777        -1.943251        -2.276662
 H         3.637267         1.473072        -1.641741
 H         1.907941         1.418714        -2.101878
 H         1.931098         2.950831         0.567870
