19
Iteration:   871charge 0 multiplicity 1
 C        -0.063464        -0.653154         0.311359
 C         1.355295        -0.183836         0.069704
 C         2.587933        -0.124161         1.001765
 C         3.397489        -1.003211        -0.021461
 C         2.382225        -0.519699        -1.043102
 O         2.006520        -1.017407        -2.270514
 C         2.641604         0.970022        -1.235556
 C         2.106509         1.073250         0.125358
 O         1.851948         2.352207         0.690759
 H        -0.312400        -0.243239         1.329490
 H        -0.905360        -0.392138        -0.284824
 H        -0.111032        -1.797711         0.477123
 H         2.666575         0.028409         2.062536
 H         4.366851        -0.571649        -0.342357
 H         3.521560        -2.098262         0.135082
 H         1.891806        -1.942643        -2.300600
 H         3.683680         1.272389        -1.430043
 H         1.882854         1.261932        -1.928488
 H         2.347448         2.996541         0.172277
