19
Iteration:   700charge 0 multiplicity 1
 C        -0.064145        -0.698905         0.460631
 C         1.251942        -0.086770        -0.045081
 C         2.502839        -0.078411         0.848762
 C         3.243275        -1.060857         0.034412
 C         2.395284        -0.457171        -1.155086
 O         2.138332        -1.217531        -2.352703
 C         2.801560         1.070857        -1.308511
 C         2.052731         1.233294         0.067246
 O         1.972117         2.364992         0.945203
 H        -0.430907        -0.490599         1.452692
 H        -0.964357        -0.636763        -0.313509
 H         0.145854        -1.766103         0.444820
 H         2.370367        -0.117325         1.919348
 H         4.362564        -1.106629        -0.087141
 H         2.948133        -2.112500         0.355169
 H         1.944085        -2.138361        -2.006523
 H         3.887615         1.206014        -1.380088
 H         2.273834         1.558289        -2.189614
 H         1.165457         2.767827         0.603446
