19
Iteration:  3260
 C         0.112974        -0.874734         0.602854
 C         1.321581        -0.237644         0.122935
 C         2.731612        -0.042433         0.776384
 C         3.489563        -0.840180        -0.320577
 C         2.304231        -0.404962        -1.200293
 O         1.977626        -1.132854        -2.384770
 C         2.389993         1.197379        -1.284528
 C         2.048786         1.147232         0.183359
 O         1.921472         2.217369         1.004291
 H         0.294724        -1.960767         0.739063
 H        -0.336581        -0.283118         1.376940
 H        -0.661744        -0.782748        -0.161421
 H         2.833622        -0.231905         1.868017
 H         4.441373        -0.484961        -0.751180
 H         3.647875        -1.899854        -0.175122
 H         1.055328        -1.501203        -2.379590
 H         3.331538         1.523258        -1.757526
 H         1.586412         1.501455        -2.010134
 H         2.299968         2.013301         1.885637
