19
Iteration:  3522charge 0 multiplicity 1
 C         0.013129        -0.640730         0.627852
 C         1.416012        -0.272389         0.207162
 C         2.813461        -0.183968         0.754334
 C         3.476740        -0.920517        -0.382142
 C         2.321463        -0.353791        -1.182223
 O         1.944985        -1.094438        -2.350367
 C         2.284945         1.161940        -1.354969
 C         2.141235         1.071345         0.174585
 O         1.897894         2.156286         1.000894
 H        -0.295026        -0.192162         1.610337
 H        -0.671800        -0.274825        -0.128505
 H        -0.115538        -1.718989         0.751682
 H         2.963368        -0.090588         1.813028
 H         4.566460        -0.662981        -0.671499
 H         3.506033        -2.045014        -0.289553
 H         2.542497        -0.811817        -3.055470
 H         3.139961         1.650498        -1.760179
 H         1.279091         1.414218        -1.628718
 H         1.656640         1.971196         1.924812
