19
Iteration:  1965charge 0 multiplicity 1
 C         0.154314        -0.817395         0.662610
 C         1.390975        -0.159249         0.090907
 C         2.636728        -0.048328         0.804171
 C         3.529486        -0.840680        -0.169907
 C         2.359001        -0.419614        -1.168640
 O         1.966972        -1.341189        -2.154529
 C         2.549270         1.136758        -1.449401
 C         2.068898         1.169485         0.032086
 O         1.660299         2.288627         0.761340
 H         0.081815        -0.766179         1.751584
 H        -0.591010        -0.321157         0.072494
 H         0.148788        -1.848854         0.583418
 H         2.849982         0.111177         1.887405
 H         4.577149        -0.525372        -0.300612
 H         3.517486        -1.879752        -0.051672
 H         0.976159        -1.157333        -2.338524
 H         3.611100         1.361163        -1.276139
 H         2.029389         1.776727        -2.138282
 H         2.151629         2.409471         1.579894
