19
Iteration:   231charge 0 multiplicity 1
 C        -0.128129        -0.512548         0.030544
 C         1.312393        -0.081345         0.007619
 C         2.572792        -0.116570         0.957067
 C         3.392206        -0.938900         0.081453
 C         2.394421        -0.549452        -1.130880
 O         1.887425        -1.393591        -2.178229
 C         2.818932         1.017694        -1.277225
 C         2.150909         1.162471         0.152311
 O         1.861046         2.417357         0.858872
 H        -0.685334         0.000291         0.839534
 H        -0.589534        -0.188914        -0.878959
 H        -0.128191        -1.676607         0.210605
 H         2.612885         0.149158         2.032657
 H         4.391532        -0.554009        -0.140019
 H         3.460620        -2.029252         0.238172
 H         2.421276        -2.220881        -2.207311
 H         3.848079         1.303587        -1.377466
 H         2.246909         1.448863        -2.133874
 H         1.937425         2.188277         1.787091
