19
Iteration:  4548
 C        -0.044028        -0.429008         0.500021
 C         1.382354        -0.149595         0.091990
 C         2.675426        -0.100929         0.943578
 C         3.370683        -1.030288        -0.129490
 C         2.325938        -0.480820        -1.131722
 O         1.933016        -1.262187        -2.301459
 C         2.705761         0.949464        -1.356584
 C         2.219709         1.162499         0.170019
 O         1.786504         2.274203         0.803944
 H        -0.750158         0.110939        -0.130495
 H        -0.426348        -1.459411         0.698551
 H        -0.038721         0.014142         1.492490
 H         2.799476         0.298734         2.086645
 H         4.435558        -0.811621        -0.435494
 H         3.236409        -2.066199         0.203960
 H         2.367021        -2.120683        -2.362317
 H         3.775163         1.080005        -1.686839
 H         1.986470         1.430019        -2.181863
 H         1.132823         2.846384         0.333079
