19
Iteration:  3509charge 0 multiplicity 1
 C         0.086711        -0.663999         0.590629
 C         1.459386        -0.270823         0.070142
 C         2.870494        -0.139630         0.876515
 C         3.463469        -0.885098        -0.339616
 C         2.277374        -0.418626        -1.289553
 O         1.847959        -1.079245        -2.369339
 C         2.354454         1.151045        -1.319761
 C         2.148153         1.082906         0.249364
 O         1.820444         2.204740         1.038664
 H        -0.053438         0.049414         1.400159
 H        -0.746957        -0.508161        -0.083851
 H         0.013949        -1.695201         0.975945
 H         3.183856        -0.382592         1.858118
 H         4.557505        -0.743831        -0.768601
 H         3.002179        -1.959316        -0.248873
 H         2.646615        -1.338841        -2.898560
 H         3.156359         1.694771        -1.833948
 H         1.536751         1.450116        -1.937642
 H         1.743906         1.735741         1.886798
