19
Iteration:  3234charge 0 multiplicity 1
 C         0.092138        -0.892291         0.501270
 C         1.366368        -0.210800         0.210747
 C         2.753808        -0.145771         0.838325
 C         3.459655        -0.883951        -0.410001
 C         2.254740        -0.331430        -1.269280
 O         2.070717        -1.251175        -2.330909
 C         2.253715         1.156004        -1.238262
 C         2.150700         1.149727         0.272257
 O         1.871030         2.342283         1.014188
 H         0.138961        -1.933253         0.091592
 H        -0.142136        -0.792717         1.596079
 H        -0.831289        -0.332940         0.113604
 H         3.049751        -0.149581         1.880160
 H         4.396263        -0.585480        -0.853886
 H         3.299278        -2.000994        -0.436479
 H         1.250287        -1.091038        -2.909115
 H         3.272610         1.517960        -1.772448
 H         1.473393         1.655455        -1.759263
 H         2.714136         2.730767         1.375424
