19
Iteration:  2896
 C         0.055482        -0.724823         0.720694
 C         1.402422        -0.229267         0.154849
 C         2.750654        -0.143347         0.757920
 C         3.527214        -0.828680        -0.357292
 C         2.289729        -0.428139        -1.216388
 O         2.037051        -1.206277        -2.356827
 C         2.420312         1.138839        -1.270330
 C         2.077991         1.111437         0.194773
 O         1.703923         2.297112         0.847423
 H         0.122763        -1.058044         1.806546
 H        -0.696944         0.047720         0.590901
 H        -0.259499        -1.697133         0.259084
 H         2.960214        -0.156636         1.814359
 H         4.395138        -0.434702        -0.849752
 H         3.401521        -1.873364        -0.180062
 H         2.144583        -2.163557        -2.079146
 H         3.439864         1.587287        -1.542458
 H         1.640693         1.588062        -1.901393
 H         2.363867         2.533081         1.522721
