19
Iteration:  3328
 C         0.044838        -0.712854         0.630275
 C         1.556678        -0.293338         0.276443
 C         3.010586        -0.187279         0.822224
 C         3.452871        -0.985977        -0.407789
 C         2.327966        -0.372767        -1.231666
 O         1.794013        -0.973845        -2.366027
 C         2.444278         1.178797        -1.293074
 C         2.197794         1.067567         0.263787
 O         1.618002         2.215828         0.862430
 H        -0.169920        -1.301549         1.533028
 H        -0.569907         0.167320         0.478835
 H        -0.443430        -1.295207        -0.129675
 H         3.344633        -0.310876         1.821608
 H         4.476549        -0.852912        -0.911580
 H         3.325092        -2.000178        -0.087035
 H         2.541416        -1.561382        -2.626100
 H         3.333142         1.765568        -1.461579
 H         1.651021         1.737749        -1.877318
 H         1.153702         2.030470         1.703113
