19
Iteration:  3507
 C         0.109653        -0.664388         0.590462
 C         1.473598        -0.267484         0.042067
 C         2.873660        -0.138723         0.874874
 C         3.453017        -0.887306        -0.340816
 C         2.271766        -0.416239        -1.294963
 O         1.827018        -1.086833        -2.380962
 C         2.368851         1.150424        -1.296174
 C         2.143410         1.101360         0.252534
 O         1.804527         2.207675         1.042489
 H        -0.085602         0.061394         1.348664
 H        -0.750568        -0.527532        -0.092921
 H         0.060049        -1.693497         1.007187
 H         3.227190        -0.413275         1.877366
 H         4.519187        -0.761634        -0.719891
 H         3.070281        -1.966555        -0.193267
 H         2.646010        -1.433241        -2.853241
 H         3.274133         1.645848        -1.798388
 H         1.508246         1.456861        -1.905765
 H         1.752733         1.746993         1.919608
