19
Iteration:  1805
 C         0.139794        -0.704998         0.667556
 C         1.427804        -0.178517         0.095030
 C         2.764272         0.047830         0.792727
 C         3.582358        -0.858027        -0.141403
 C         2.366012        -0.583493        -1.096965
 O         1.884113        -1.268993        -2.316161
 C         2.525192         0.956372        -1.340968
 C         2.114180         1.200869         0.102014
 O         1.548889         2.309941         0.745949
 H        -0.071830        -0.394404         1.733608
 H        -0.619082        -0.268789         0.079281
 H         0.187987        -1.801760         0.831209
 H         2.771308        -0.040152         1.872087
 H         4.559842        -0.470053        -0.479848
 H         3.635144        -1.898608         0.257422
 H         1.846036        -0.660217        -3.101889
 H         3.573820         1.177908        -1.469766
 H         1.695173         1.381412        -1.984490
 H         2.105883         2.329701         1.551103
