19
Iteration:   277charge 0 multiplicity 1
 C        -0.097242        -0.581410         0.150967
 C         1.367203        -0.059748         0.068692
 C         2.546850        -0.104184         1.035803
 C         3.272024        -1.159713         0.063036
 C         2.466207        -0.551757        -1.096545
 O         1.985721        -1.297900        -2.211590
 C         2.810768         1.023151        -1.245697
 C         2.105950         1.221790         0.144138
 O         1.785385         2.438660         0.703490
 H        -0.486469        -0.389618         1.207700
 H        -0.748120        -0.117187        -0.575744
 H         0.133868        -1.653387         0.006531
 H         2.598792        -0.219157         2.121183
 H         4.391504        -1.293533         0.064633
 H         2.845519        -2.074924         0.281595
 H         2.364818        -0.939290        -2.985919
 H         3.797893         1.381267        -1.483963
 H         2.182698         1.484605        -2.067800
 H         2.573578         2.687079         1.229288
