19
Iteration:   400
 C        -0.129821        -0.271599         0.169617
 C         1.358110        -0.264390         0.022410
 C         2.606451        -0.114921         0.937067
 C         3.438175        -0.977586        -0.013422
 C         2.437806        -0.561611        -1.098759
 O         2.053123        -1.312269        -2.182271
 C         2.705853         0.930870        -1.212955
 C         2.105273         1.041440         0.193026
 O         1.798300         2.313985         0.805593
 H        -0.264379         0.513762         0.961265
 H        -0.655269         0.054541        -0.833300
 H        -0.529094        -1.224492         0.397281
 H         2.368087        -0.171520         1.997547
 H         4.504388        -0.719330        -0.127583
 H         3.269744        -1.997105         0.351175
 H         2.229783        -0.773172        -2.957409
 H         3.757562         1.279036        -1.324740
 H         2.194324         1.547140        -1.938969
 H         0.907207         2.634742         0.656697
