19
Iteration:   304charge 0 multiplicity 1
 C        -0.215900        -0.515643         0.321810
 C         1.270392        -0.192336         0.027525
 C         2.446770        -0.111246         0.995166
 C         3.307540        -1.024281         0.056060
 C         2.288343        -0.578048        -1.070577
 O         2.216479        -1.161196        -2.267256
 C         2.809401         0.902746        -1.182215
 C         2.169018         1.104668         0.151739
 O         1.864051         2.355710         0.657043
 H        -0.385961        -0.127286         1.292917
 H        -0.987521        -0.043908        -0.420938
 H        -0.304335        -1.615282         0.248520
 H         2.652111        -0.060066         2.066541
 H         4.257536        -0.552710        -0.114264
 H         3.435499        -2.157845         0.364076
 H         1.960518        -0.516654        -2.878101
 H         3.919071         0.979795        -1.521703
 H         2.437986         1.525483        -1.993122
 H         2.478669         2.991347         0.240111
