19
Iteration:    82
 C        -0.130884        -0.459681         0.051059
 C         1.366418        -0.191443         0.148216
 C         2.644695        -0.078543         1.047379
 C         3.300443        -1.068246         0.037962
 C         2.392776        -0.503384        -1.049978
 O         2.053313        -1.287297        -2.137820
 C         2.676648         0.972576        -1.308099
 C         2.159634         1.120001         0.156870
 O         1.799350         2.390205         0.681799
 H        -0.737100        -0.172038         1.021928
 H        -0.427985         0.052781        -0.941186
 H        -0.195066        -1.548551        -0.082691
 H         2.750336         0.013900         2.155452
 H         4.437263        -1.247573        -0.076266
 H         2.893317        -2.032250         0.353417
 H         2.512931        -0.913706        -2.865919
 H         3.671662         1.376551        -1.627086
 H         1.857212         1.361753        -1.991043
 H         2.336066         2.538291         1.464934
