19
Iteration:  3906
 C         0.014415        -0.445129         0.492024
 C         1.428718        -0.120039         0.074238
 C         2.808637        -0.238911         0.846054
 C         3.466291        -0.997631        -0.281323
 C         2.288251        -0.418868        -1.179326
 O         1.792456        -1.081232        -2.343233
 C         2.656052         1.054483        -1.220426
 C         2.193066         1.081816         0.171302
 O         1.661322         2.111497         0.928125
 H         0.065472        -0.716363         1.571675
 H        -0.642950         0.422818         0.459642
 H        -0.321000        -1.228147        -0.152953
 H         3.097289        -0.180986         1.922614
 H         4.576736        -0.845693        -0.715081
 H         3.179400        -2.099738        -0.121864
 H         2.248105        -1.950822        -2.392716
 H         3.697536         1.319881        -1.205147
 H         2.031169         1.657242        -1.922744
 H         2.187530         2.721214         1.473906
