19
Iteration:   392
 C        -0.231387        -0.258881         0.218021
 C         1.378490        -0.196849         0.017138
 C         2.604233        -0.111346         0.965370
 C         3.434977        -1.023463         0.013582
 C         2.432071        -0.551172        -1.083769
 O         2.111867        -1.348759        -2.213506
 C         2.760671         1.015051        -1.254184
 C         2.099586         1.091466         0.094111
 O         1.795093         2.250540         0.853126
 H        -0.527821         0.486948         0.963515
 H        -0.727054         0.165387        -0.738144
 H        -0.644723        -1.200746         0.608513
 H         2.558056        -0.014961         2.048882
 H         4.455546        -0.722004        -0.106845
 H         3.409804        -2.170728         0.206024
 H         2.141187        -0.945206        -3.056266
 H         3.853780         1.223725        -1.463157
 H         2.056598         1.342659        -2.031443
 H         0.840225         2.388888         0.810510
