19
Iteration:  4667
 C         0.043499        -0.562151         0.335566
 C         1.394724        -0.107986         0.020117
 C         2.649761        -0.085408         0.927043
 C         3.337261        -1.033588        -0.099757
 C         2.297830        -0.554878        -1.133444
 O         1.788653        -1.292105        -2.161012
 C         2.764914         1.083232        -1.267587
 C         2.212886         1.189066         0.101948
 O         1.823419         2.373998         0.842053
 H        -0.854984        -0.181870        -0.085827
 H        -0.083722        -1.621882         0.405832
 H         0.033685        -0.476894         1.403558
 H         3.005501        -0.104093         2.038063
 H         4.406400        -0.835988        -0.147973
 H         3.304958        -2.166412         0.212468
 H         2.443547        -1.964516        -2.479450
 H         3.684973         1.222218        -1.722654
 H         2.039847         1.373853        -2.107473
 H         1.468124         2.885743         0.096923
