19
Iteration:    75
 C        -0.165071        -0.470595        -0.006804
 C         1.321549        -0.112308         0.127789
 C         2.642381        -0.070355         0.996494
 C         3.354767        -1.041803         0.104371
 C         2.422191        -0.525647        -1.073614
 O         2.053394        -1.309224        -2.100696
 C         2.607908         0.949872        -1.302342
 C         2.201972         1.110972         0.143459
 O         1.826776         2.388251         0.742212
 H        -0.761680        -0.219001         0.813700
 H        -0.566218        -0.160443        -0.982514
 H        -0.214380        -1.641928        -0.144900
 H         3.095246         0.146680         1.948221
 H         4.404555        -1.130963         0.064616
 H         2.859375        -2.099171         0.194017
 H         2.209550        -0.842356        -2.918755
 H         3.625013         1.260078        -1.609839
 H         1.885987         1.439133        -1.905799
 H         2.410930         2.474023         1.525343
