19
Iteration:   975
 C        -0.131604        -0.436210         0.356535
 C         1.271006        -0.196798         0.123915
 C         2.636722        -0.080309         1.008373
 C         3.474543        -0.926994        -0.135676
 C         2.318761        -0.503387        -1.111097
 O         2.156406        -1.201121        -2.302959
 C         2.546066         0.941953        -1.321931
 C         2.161447         1.107813         0.138907
 O         1.799304         2.221642         0.826768
 H        -0.553433         0.245959         1.116890
 H        -0.646254        -0.090023        -0.601444
 H        -0.550389        -1.364078         0.641351
 H         2.734071        -0.097808         2.096297
 H         4.391909        -0.510820        -0.588399
 H         3.463999        -2.028251         0.041806
 H         2.214599        -2.165462        -2.137788
 H         3.567489         1.324213        -1.678363
 H         1.810707         1.432058        -1.996815
 H         2.612550         2.623304         1.128737
