19
Iteration:  3737charge 0 multiplicity 1
 C         0.019426        -0.412863         0.551465
 C         1.492013        -0.310974         0.113233
 C         2.777650        -0.232206         0.829408
 C         3.474811        -0.930648        -0.329122
 C         2.306664        -0.378211        -1.246808
 O         1.867979        -1.224036        -2.401680
 C         2.536060         1.176416        -1.246456
 C         2.204984         1.061471         0.293845
 O         1.682940         2.071566         1.016517
 H        -0.159909         0.590535         0.950675
 H        -0.846736        -0.688260        -0.100435
 H         0.104059        -1.195802         1.368058
 H         3.034186        -0.503251         1.872120
 H         4.655312        -0.603954        -0.629290
 H         3.454809        -2.026994        -0.239693
 H         1.526218        -0.465608        -2.912806
 H         3.507249         1.559521        -1.588653
 H         1.756245         1.723986        -1.781351
 H         2.068094         2.927495         0.752400
