19
Iteration:  2212
 C         0.140819        -0.736440         0.610805
 C         1.420653        -0.153435         0.131282
 C         2.788985        -0.056629         0.919779
 C         3.405817        -0.920106        -0.184035
 C         2.340987        -0.426619        -1.218986
 O         2.068294        -1.326443        -2.227917
 C         2.446478         1.155507        -1.389427
 C         2.123867         1.195428         0.133343
 O         1.608680         2.223291         0.766799
 H         0.137670        -0.563786         1.639116
 H        -0.854360        -0.509641         0.214170
 H         0.338158        -1.787380         0.355263
 H         3.065677         0.169862         1.985489
 H         4.463706        -0.890555        -0.431044
 H         3.225344        -1.988071         0.126661
 H         1.184104        -1.067382        -2.623701
 H         3.323754         1.563298        -1.933621
 H         1.593267         1.742662        -1.815778
 H         2.337199         2.856265         0.936893
