19
Iteration:  3623
 C         0.112646        -0.850546         0.465991
 C         1.373857        -0.144553         0.090622
 C         2.856187        -0.053527         0.862456
 C         3.475483        -1.041083        -0.284315
 C         2.258297        -0.419062        -1.163191
 O         1.666971        -1.111717        -2.345107
 C         2.584422         1.150739        -1.211613
 C         2.172255         1.130125         0.208696
 O         1.786483         2.279678         0.937068
 H        -0.027931        -1.191901         1.519215
 H        -0.770330        -0.229926         0.287886
 H         0.074351        -1.645484        -0.254535
 H         3.196614        -0.183014         1.940523
 H         4.470723        -0.666028        -0.808332
 H         3.378328        -2.139940        -0.050784
 H         2.219665        -0.688385        -3.073894
 H         3.601373         1.337870        -1.435456
 H         1.872418         1.722056        -1.825804
 H         2.374739         2.309944         1.718627
