19
Iteration:  2990charge 0 multiplicity 1
 C         0.129564        -0.703562         0.551028
 C         1.436883        -0.175040         0.069027
 C         2.936368        -0.086784         0.830828
 C         3.576772        -0.886552        -0.348229
 C         2.319899        -0.489954        -1.133054
 O         1.735074        -1.034459        -2.272581
 C         2.588896         1.127454        -1.236358
 C         2.161405         1.082936         0.234989
 O         1.529569         2.140281         0.864203
 H        -0.575259        -0.004790         1.031754
 H        -0.378758        -1.248687        -0.298262
 H         0.413365        -1.333561         1.404233
 H         3.143633        -0.285477         1.851322
 H         4.508682        -0.494587        -0.773527
 H         3.363715        -1.912397         0.096963
 H         1.943563        -1.956904        -2.288134
 H         3.560970         1.388101        -1.640415
 H         1.730444         1.333791        -1.936938
 H         1.903557         2.977295         0.580776
