19
Iteration:   581
 C        -0.151265        -0.234582         0.297661
 C         1.356773        -0.190888        -0.052564
 C         2.617117        -0.114568         0.912703
 C         3.489798        -1.000107        -0.045110
 C         2.433924        -0.501520        -1.187626
 O         2.096568        -1.411464        -2.295496
 C         2.750142         1.135793        -1.222066
 C         2.174741         1.085646         0.103703
 O         1.655719         2.184613         0.965383
 H        -0.334837         0.469142         1.138843
 H        -0.898741        -0.019924        -0.416468
 H        -0.600331        -1.224106         0.810633
 H         2.427579        -0.252489         2.000704
 H         4.558821        -0.821762        -0.223119
 H         3.390379        -2.053148         0.113531
 H         1.530959        -2.092378        -1.878646
 H         3.765751         1.478779        -1.257265
 H         2.029823         1.552337        -1.964609
 H         1.706474         2.997757         0.386650
