19
Iteration:  1279
 C        -0.106253        -0.586067         0.504210
 C         1.367875        -0.110423         0.084323
 C         2.639982        -0.025669         0.820975
 C         3.397747        -0.921113        -0.189054
 C         2.268829        -0.559963        -1.129023
 O         2.080924        -1.363887        -2.236325
 C         2.631543         0.967119        -1.365334
 C         2.143346         1.214621         0.042025
 O         1.870570         2.332998         0.966894
 H        -0.287927        -0.129399         1.457793
 H        -0.925921        -0.247501        -0.163483
 H        -0.035871        -1.670299         0.671521
 H         2.656134        -0.001145         1.929764
 H         4.452526        -0.660005        -0.306207
 H         3.221551        -1.969637         0.207280
 H         2.756392        -1.140161        -2.844897
 H         3.626627         1.426830        -1.419941
 H         1.969351         1.314629        -2.257801
 H         0.891340         2.398650         0.932689
