19
Iteration:  2233
 C         0.124451        -0.708921         0.632032
 C         1.461656        -0.265088         0.153619
 C         2.813007         0.021466         0.776280
 C         3.514717        -0.856368        -0.206931
 C         2.349564        -0.482921        -1.121750
 O         1.983710        -1.247447        -2.256740
 C         2.537138         1.009504        -1.356507
 C         2.035117         1.221342         0.039612
 O         1.566170         2.231884         0.840027
 H        -0.164354        -0.136796         1.501174
 H        -0.604524        -0.316909        -0.117472
 H        -0.011739        -1.800270         0.613825
 H         2.793347         0.034037         1.890594
 H         4.505332        -0.530782        -0.500190
 H         3.563323        -1.952813         0.074192
 H         1.003629        -1.124484        -2.250375
 H         3.592221         1.390499        -1.579270
 H         1.882869         1.379699        -2.230846
 H         2.269422         2.607106         1.376609
