19
Iteration:  3239
 C         0.099330        -0.881667         0.505641
 C         1.360325        -0.231193         0.208558
 C         2.769006        -0.183135         0.828588
 C         3.408832        -0.837011        -0.402612
 C         2.229400        -0.361628        -1.261856
 O         2.076365        -1.219338        -2.341094
 C         2.288970         1.116215        -1.273957
 C         2.127255         1.181010         0.237197
 O         1.878381         2.370909         1.039346
 H         0.213145        -1.924247         0.201444
 H        -0.059153        -0.711075         1.562618
 H        -0.735015        -0.436668        -0.005731
 H         3.071817        -0.184664         1.897470
 H         4.458169        -0.701272        -0.807336
 H         3.436226        -1.921261        -0.383452
 H         1.238812        -1.350066        -2.798954
 H         3.213380         1.538115        -1.595108
 H         1.437839         1.691462        -1.744119
 H         2.711730         2.521611         1.517792
