19
Iteration:  2876
 C         0.152457        -0.785660         0.598963
 C         1.431109        -0.171749         0.161731
 C         2.904300        -0.079447         0.867968
 C         3.501042        -0.975070        -0.270855
 C         2.279089        -0.467472        -1.162495
 O         1.857445        -1.059818        -2.328330
 C         2.486822         1.129692        -1.278109
 C         2.160907         1.140474         0.218420
 O         1.575217         2.240975         0.764242
 H         0.278702        -1.250909         1.644884
 H        -0.675719        -0.048618         0.652893
 H        -0.061914        -1.644326        -0.095042
 H         3.024148        -0.206426         1.956141
 H         4.399407        -0.568523        -0.631851
 H         3.386272        -2.030499        -0.052120
 H         2.081100        -1.998458        -2.335666
 H         3.424948         1.514633        -1.778365
 H         1.639009         1.529648        -1.875964
 H         2.240021         2.896695         1.019836
