19
Iteration:  2309charge 0 multiplicity 1
 C         0.013753        -0.559848         0.561237
 C         1.338138        -0.100662         0.322899
 C         2.814869        -0.010856         0.811067
 C         3.552009        -0.900446        -0.278065
 C         2.426570        -0.509932        -1.245119
 O         2.105577        -1.402463        -2.290227
 C         2.308679         1.042352        -1.399327
 C         2.062616         1.118319         0.116526
 O         1.663320         2.230750         0.983768
 H        -0.615615         0.359540         0.816277
 H        -0.271509        -1.183073        -0.362538
 H        -0.024126        -1.366152         1.363237
 H         3.241950        -0.077693         1.808102
 H         4.576976        -0.642219        -0.545812
 H         3.560501        -1.899551         0.260604
 H         1.757531        -0.866608        -3.071483
 H         3.086724         1.732485        -1.862252
 H         1.409315         1.464288        -1.984268
 H         2.432656         2.839668         0.929646
