19
Iteration:  3380charge 0 multiplicity 1
 C         0.024244        -0.734465         0.606654
 C         1.361237        -0.214050         0.092972
 C         2.681498        -0.200069         0.723749
 C         3.540144        -0.729027        -0.391731
 C         2.313942        -0.348153        -1.281703
 O         1.884328        -1.322813        -2.349190
 C         2.427993         1.169093        -1.287025
 C         2.104489         1.147729         0.251363
 O         1.977044         2.189627         1.122090
 H        -0.077212        -0.717941         1.774362
 H        -0.864485        -0.407719        -0.011289
 H        -0.018357        -1.884236         0.468890
 H         2.854424        -0.077429         1.782889
 H         4.463854        -0.302825        -0.669902
 H         3.674022        -1.802102        -0.494321
 H         2.031391        -0.720390        -3.090592
 H         3.496900         1.534867        -1.650853
 H         1.595077         1.849798        -1.732788
 H         1.282666         2.132580         1.799979
