19
Iteration:  1421
 C        -0.084470        -0.408594         0.555581
 C         1.363043        -0.155500         0.133973
 C         2.699389        -0.052711         0.883893
 C         3.436129        -0.780138        -0.297195
 C         2.316647        -0.553054        -1.151012
 O         2.186323        -1.454936        -2.255851
 C         2.552338         1.045622        -1.364858
 C         2.130076         1.101152         0.128553
 O         1.721621         2.259251         0.817306
 H        -0.352255         0.048218         1.520005
 H        -0.701488        -0.050756        -0.275031
 H        -0.408740        -1.614721         0.733205
 H         2.856374        -0.169487         1.952274
 H         4.485353        -0.439658        -0.542063
 H         3.536354        -1.864213        -0.028638
 H         1.349815        -1.872062        -2.172217
 H         3.638834         1.256782        -1.581719
 H         1.817070         1.782693        -1.932926
 H         1.959057         2.260113         1.778629
