19
Iteration:  3096charge 0 multiplicity 1
 C        -0.046425        -0.785331         0.616937
 C         1.341210        -0.350336         0.108497
 C         2.804453        -0.050878         0.768904
 C         3.530860        -0.700222        -0.292163
 C         2.272351        -0.485834        -1.189680
 O         2.067339        -1.122483        -2.348044
 C         2.248275         1.081746        -1.371495
 C         2.040094         1.121328         0.142891
 O         1.923471         2.262252         1.002070
 H        -0.742545         0.063546         0.508454
 H        -0.483966        -1.744840         0.388857
 H         0.132798        -0.897393         1.683746
 H         3.020805        -0.067086         1.818626
 H         4.583325        -0.389219        -0.606153
 H         3.723230        -1.762337        -0.293531
 H         2.164604        -2.066358        -2.261311
 H         3.184073         1.556200        -1.752750
 H         1.307014         1.448061        -1.913774
 H         2.625020         2.236456         1.661664
