19
Iteration:   408
 C        -0.012160        -0.301884         0.113312
 C         1.352852        -0.290101         0.039869
 C         2.544577        -0.161520         0.961945
 C         3.439822        -0.956927         0.004388
 C         2.386536        -0.552873        -1.093449
 O         2.005785        -1.293488        -2.189627
 C         2.691322         0.925660        -1.168297
 C         2.128315         1.111680         0.242200
 O         1.813644         2.340928         0.754319
 H        -0.433770         0.308482         0.960057
 H        -0.443673        -0.000055        -0.781143
 H        -0.504923        -1.286657         0.339684
 H         2.636507        -0.365586         2.055087
 H         4.551190        -0.802682        -0.232214
 H         3.295325        -1.955500         0.263525
 H         2.320533        -0.714949        -2.934125
 H         3.723163         1.197484        -1.179736
 H         2.003334         1.501061        -1.873254
 H         1.030268         2.633520         0.267566
