19
Iteration:  4267charge 0 multiplicity 1
 C        -0.009486        -0.631307         0.324667
 C         1.332822        -0.056824         0.141561
 C         2.649013        -0.105739         0.932164
 C         3.333903        -1.053042        -0.169832
 C         2.306968        -0.495904        -1.147901
 O         1.862254        -1.227549        -2.148749
 C         2.663927         1.024657        -1.321288
 C         2.128594         1.165926         0.162425
 O         1.975912         2.333689         0.794870
 H        -0.717812        -0.073675         0.920507
 H        -0.442357        -0.666995        -0.651480
 H        -0.032721        -1.624121         0.662528
 H         2.518583        -0.222300         2.030893
 H         4.425144        -1.016488        -0.341618
 H         3.083036        -2.094829         0.001578
 H         2.260802        -0.842366        -2.937021
 H         3.674910         1.271201        -1.505486
 H         2.117826         1.563790        -2.092828
 H         2.488877         2.410547         1.628942
