19
Iteration:  1228charge 0 multiplicity 1
 C        -0.058008        -0.371861         0.393719
 C         1.441492        -0.236721         0.115856
 C         2.659623        -0.189783         0.975247
 C         3.486410        -0.980862        -0.184507
 C         2.365902        -0.515847        -1.103507
 O         2.126105        -1.258558        -2.225385
 C         2.450367         0.962094        -1.339953
 C         2.190268         1.066610         0.235750
 O         1.730144         2.331658         0.685741
 H        -0.436905         0.224972         1.296180
 H        -0.563412         0.237477        -0.448992
 H        -0.294231        -1.381357         0.336095
 H         2.816871        -0.191426         2.081068
 H         4.385708        -0.447441        -0.385713
 H         3.634799        -2.003327         0.254320
 H         1.243233        -0.893076        -2.557334
 H         3.431190         1.292369        -1.778426
 H         1.631807         1.358732        -1.857746
 H         1.687370         2.392379         1.689886
