19
Iteration:   521
 C        -0.141802        -0.512860         0.332651
 C         1.266007        -0.159770         0.116850
 C         2.596535        -0.153143         0.934084
 C         3.287367        -1.091173         0.030695
 C         2.405089        -0.499554        -1.173684
 O         2.151753        -1.178986        -2.374122
 C         2.655920         0.957560        -1.168157
 C         2.071238         1.166271         0.179374
 O         1.926977         2.406974         0.683105
 H        -0.394698         0.164885         1.158120
 H        -0.708202        -0.116381        -0.634174
 H        -0.295638        -1.533445         0.473981
 H         2.654991        -0.184605         2.009506
 H         4.405485        -1.033601         0.013641
 H         2.923974        -2.171434         0.181044
 H         2.838804        -1.931293        -2.443819
 H         3.697729         1.418555        -1.182531
 H         2.122322         1.439448        -1.994162
 H         1.475337         2.391916         1.553408
