19
Iteration:  1356charge 0 multiplicity 1
 C         0.016932        -0.758946         0.382909
 C         1.371413        -0.124587         0.254842
 C         2.694713        -0.034052         0.909980
 C         3.410224        -0.947215        -0.117664
 C         2.268083        -0.536254        -1.081274
 O         1.903241        -1.157887        -2.261525
 C         2.600399         0.995428        -1.253957
 C         2.192941         1.198329         0.170240
 O         1.756758         2.363636         0.677107
 H        -0.603888        -0.438622         1.164777
 H        -0.251360        -0.740504        -0.649981
 H         0.111434        -1.876163         0.559029
 H         2.984135         0.104231         1.950774
 H         4.453875        -0.773754        -0.504059
 H         3.383354        -2.050912         0.157166
 H         2.044036        -2.126526        -2.300716
 H         3.635426         1.020813        -1.547908
 H         2.186105         1.701516        -2.065885
 H         2.486211         2.959692         0.521673
