19
Iteration:  2642
 C         0.082800        -0.806269         0.357693
 C         1.382633        -0.173163         0.203760
 C         2.726486        -0.088820         0.801938
 C         3.489135        -0.791597        -0.234704
 C         2.307485        -0.400608        -1.132892
 O         2.019058        -1.398405        -2.085320
 C         2.358509         1.149181        -1.302679
 C         2.087238         1.153144         0.188140
 O         1.833042         2.296823         0.837140
 H        -0.858891        -0.307489         0.125250
 H         0.174859        -1.767761        -0.173900
 H        -0.173708        -0.866193         1.436052
 H         2.964521        -0.030370         1.824521
 H         4.441862        -0.375228        -0.610022
 H         3.560118        -1.855042        -0.025586
 H         1.622934        -1.140702        -2.922667
 H         3.298285         1.545596        -1.755775
 H         1.420930         1.490843        -1.754810
 H         2.364042         2.995424         0.378225
