19
Iteration:  3861charge 0 multiplicity 1
 C         0.008711        -0.709312         0.384395
 C         1.324550        -0.138235         0.114583
 C         2.681184        -0.151770         0.802626
 C         3.382152        -1.022418        -0.249018
 C         2.325499        -0.459562        -1.167054
 O         1.940467        -1.126647        -2.382581
 C         2.514447         1.120339        -1.199312
 C         2.123755         1.118884         0.248512
 O         1.971259         2.291890         0.982557
 H        -0.211131        -0.534294         1.486562
 H        -0.842777        -0.330029        -0.181291
 H         0.195508        -1.773959         0.215921
 H         2.900460        -0.190660         1.828596
 H         4.473478        -0.547546        -0.316929
 H         3.296026        -2.148719        -0.018469
 H         0.979304        -1.146806        -2.496298
 H         3.429977         1.399978        -1.689467
 H         1.652979         1.523331        -1.750122
 H         2.876317         2.585859         1.215836
