19
Iteration:  1384charge 0 multiplicity 1
 C         0.004966        -0.629876         0.434336
 C         1.370596        -0.179106         0.034297
 C         2.657705        -0.026850         0.879214
 C         3.473483        -0.960860        -0.074029
 C         2.470623        -0.542588        -1.125225
 O         1.991538        -1.260480        -2.189773
 C         2.455519         1.089641        -1.388833
 C         2.102083         1.209182         0.082695
 O         1.796953         2.337519         0.819406
 H        -0.361739        -0.038181         1.363002
 H        -0.673026        -0.521368        -0.469643
 H        -0.055712        -1.751300         0.685443
 H         2.643321        -0.139356         2.000084
 H         4.585369        -0.837766        -0.269257
 H         3.302431        -1.997250         0.146553
 H         1.489121        -1.985603        -1.893589
 H         3.427210         1.457907        -1.903338
 H         1.718319         1.300518        -2.143336
 H         2.549542         2.347149         1.407240
