19
Iteration:  3081
 C         0.011809        -0.829958         0.662558
 C         1.339741        -0.256967         0.160100
 C         2.681197        -0.093958         0.787854
 C         3.533866        -0.761879        -0.372710
 C         2.305954        -0.371508        -1.236078
 O         2.110555        -1.220289        -2.395382
 C         2.254431         1.166114        -1.290373
 C         2.033770         1.092125         0.225021
 O         1.949542         2.295001         0.921102
 H        -0.825924        -0.137043         0.628585
 H        -0.173520        -1.570125        -0.096915
 H        -0.100820        -1.152509         1.706326
 H         2.860500        -0.002509         1.883702
 H         4.509948        -0.192579        -0.766183
 H         3.728701        -1.856323        -0.025424
 H         1.667813        -2.007962        -1.952507
 H         3.134428         1.545524        -1.767187
 H         1.347050         1.322834        -1.756499
 H         2.624439         2.107966         1.599595
