19
Iteration:  1834charge 0 multiplicity 1
 C         0.137100        -0.657710         0.721119
 C         1.479266        -0.262015         0.121565
 C         2.784733        -0.030502         0.866595
 C         3.449928        -0.933239        -0.178190
 C         2.471988        -0.444698        -1.162339
 O         1.979905        -1.287448        -2.197900
 C         2.423618         1.123631        -1.433728
 C         2.138197         1.149795         0.058647
 O         1.526907         2.226684         0.737380
 H        -0.026681         0.052835         1.631733
 H        -0.745752        -0.273294         0.095378
 H        -0.070444        -1.696864         0.972963
 H         2.788059         0.059314         1.930576
 H         4.510675        -0.707984        -0.525794
 H         3.239054        -1.959174         0.002283
 H         2.042424        -0.866756        -3.119637
 H         3.398192         1.560635        -1.790042
 H         1.552413         1.510000        -1.944131
 H         2.239179         2.513620         1.298969
