19
Iteration:    31charge 0 multiplicity 1
 C        -0.171652        -0.515103         0.018490
 C         1.278454        -0.095634        -0.048176
 C         2.454258        -0.185993         0.903514
 C         3.359008        -0.891931         0.010311
 C         2.374961        -0.403150        -1.157097
 O         2.112653        -1.527750        -2.076330
 C         2.750372         1.047167        -1.247919
 C         2.117452         1.187433         0.181164
 O         1.942057         2.362551         0.874021
 H        -0.377030         0.107216         0.806271
 H        -0.651375        -0.300135        -0.907615
 H        -0.466135        -1.577807         0.314269
 H         2.507937        -0.021271         1.970961
 H         4.326357        -0.509514         0.119951
 H         3.396243        -2.052600         0.113598
 H         1.187133        -1.679013        -1.832414
 H         3.838170         1.169807        -1.379507
 H         2.288515         1.630116        -2.001778
 H         2.783480         2.729516         1.222499
