19
Iteration:  4473charge 0 multiplicity 1
 C        -0.064637        -0.565300         0.314843
 C         1.311303        -0.048777         0.112790
 C         2.582764        -0.088223         0.921033
 C         3.410368        -1.022836        -0.110747
 C         2.264631        -0.579854        -1.104411
 O         1.956890        -1.377646        -2.186729
 C         2.609353         0.993933        -1.317101
 C         2.156436         1.213787         0.116482
 O         2.089034         2.362138         0.836236
 H        -0.213721        -1.365560        -0.473476
 H        -0.019564        -1.266953         1.236035
 H        -0.942589         0.080050         0.562728
 H         2.756548         0.476934         1.967826
 H         4.466319        -0.719128        -0.310288
 H         3.308236        -2.048555        -0.060817
 H         1.569289        -0.819947        -2.905900
 H         3.616964         1.386304        -1.463342
 H         1.890579         1.411341        -1.899687
 H         1.261299         2.846288         0.876983
