19
Iteration:   532charge 0 multiplicity 1
 C        -0.197246        -0.421443         0.343902
 C         1.277073        -0.129040         0.124691
 C         2.584583        -0.120364         0.981379
 C         3.361389        -1.148560         0.003349
 C         2.455116        -0.628415        -1.114293
 O         2.175775        -1.138992        -2.451985
 C         2.639591         0.994467        -1.186815
 C         2.125142         1.073791         0.192899
 O         1.891054         2.441629         0.719269
 H        -0.782489         0.078106         1.133626
 H        -0.763677        -0.194616        -0.681394
 H        -0.421131        -1.416175         0.557760
 H         2.802251        -0.009437         2.025736
 H         4.449235        -1.050837        -0.259937
 H         3.226865        -2.177412         0.479085
 H         2.572053        -2.036821        -2.565692
 H         3.667477         1.341335        -1.527526
 H         1.791289         1.365651        -1.753508
 H         1.112444         2.394795         1.277020
