19
Iteration:  1898
 C        -0.017101        -0.726856         0.504151
 C         1.437998        -0.202055         0.076209
 C         2.837865        -0.005364         0.881958
 C         3.597522        -0.769477        -0.154736
 C         2.375461        -0.495809        -1.163043
 O         1.986294        -1.310094        -2.100657
 C         2.265741         1.068817        -1.390611
 C         2.063297         1.077716         0.102510
 O         1.760742         2.216189         0.822927
 H        -0.323524        -0.067244         1.313277
 H        -0.724933        -0.552239        -0.311647
 H         0.056885        -1.699770         0.936991
 H         2.957187         0.276382         1.897115
 H         4.564131        -0.427784        -0.545437
 H         3.718322        -1.839989        -0.031252
 H         1.777280        -0.714238        -2.800935
 H         3.215818         1.469358        -1.816629
 H         1.344186         1.359308        -1.857824
 H         2.389990         2.894233         0.502419
