19
Iteration:   287charge 0 multiplicity 1
 C        -0.062622        -0.564756         0.210291
 C         1.303230        -0.065462         0.087868
 C         2.537450        -0.101056         0.981873
 C         3.320768        -1.065309         0.078201
 C         2.390796        -0.574755        -1.074156
 O         2.049036        -1.254383        -2.291072
 C         2.783829         0.913149        -1.164060
 C         2.129116         1.150375         0.146215
 O         1.805086         2.435189         0.681058
 H        -0.538874        -0.331044         1.205677
 H        -0.707368        -0.120823        -0.497066
 H        -0.257393        -1.652236         0.005457
 H         2.295269        -0.137370         2.040577
 H         4.427503        -1.097735        -0.068670
 H         2.954786        -2.024223         0.367328
 H         2.255275        -0.662592        -2.985046
 H         3.825746         1.180064        -1.188816
 H         2.206916         1.380535        -2.008486
 H         2.698974         2.838902         0.806449
