19
Iteration:  3027
 C         0.191451        -0.876631         0.531940
 C         1.476099        -0.177266         0.106113
 C         2.852758        -0.043449         0.832921
 C         3.530920        -0.934234        -0.207346
 C         2.325784        -0.415239        -1.136095
 O         1.737691        -1.027013        -2.338903
 C         2.544837         1.126634        -1.322509
 C         2.054646         1.153474         0.127091
 O         1.621635         2.215797         0.890090
 H        -0.652221        -0.213463         0.700663
 H        -0.095767        -1.632831        -0.158317
 H         0.378988        -1.487953         1.427996
 H         3.214445         0.022942         1.887883
 H         4.667699        -0.933768        -0.448355
 H         3.562355        -1.990517         0.112370
 H         1.210717        -1.802139        -2.054176
 H         3.558029         1.516242        -1.457021
 H         1.858461         1.479743        -2.047589
 H         2.473225         2.607173         1.136528
