19
Iteration:  1354
 C        -0.000632        -0.758132         0.384701
 C         1.390236        -0.125948         0.245788
 C         2.702577        -0.041452         0.916102
 C         3.398721        -0.955048        -0.114429
 C         2.273769        -0.523926        -1.077849
 O         1.892562        -1.155495        -2.264294
 C         2.605936         0.994686        -1.241410
 C         2.194235         1.217026         0.184017
 O         1.755737         2.363425         0.665536
 H        -0.676453        -0.479528         1.181728
 H        -0.261785        -0.779627        -0.634677
 H         0.161628        -1.950432         0.567402
 H         2.988022         0.013292         1.997482
 H         4.431885        -0.755819        -0.624174
 H         3.394938        -1.989669         0.141759
 H         2.108115        -2.165916        -2.320251
 H         3.685909         1.013354        -1.503983
 H         2.211812         1.636554        -2.116604
 H         2.450194         3.030118         0.444369
