19
Iteration:  4668
 C         0.044118        -0.567329         0.335992
 C         1.384575        -0.112337         0.016823
 C         2.648562        -0.087038         0.917949
 C         3.334861        -1.029506        -0.099810
 C         2.305725        -0.547942        -1.129101
 O         1.785007        -1.291017        -2.157729
 C         2.763373         1.081620        -1.258689
 C         2.218334         1.187115         0.094593
 O         1.824492         2.374875         0.841657
 H        -0.827616        -0.184760        -0.062314
 H        -0.050649        -1.614279         0.421200
 H         0.012013        -0.426869         1.388458
 H         2.990456        -0.147766         2.010314
 H         4.443606        -0.865948        -0.153689
 H         3.281042        -2.129203         0.248744
 H         2.476700        -1.935371        -2.475671
 H         3.694188         1.210581        -1.740513
 H         2.033037         1.355171        -2.114484
 H         1.452187         2.881549         0.118598
