19
Iteration:  3544
 C        -0.024130        -0.620690         0.577168
 C         1.335418        -0.275732         0.222701
 C         2.829204        -0.233146         0.811832
 C         3.511106        -0.783036        -0.399865
 C         2.241026        -0.459711        -1.180345
 O         2.032590        -1.179981        -2.451423
 C         2.312164         1.102704        -1.275969
 C         2.077643         1.027727         0.265548
 O         1.979835         2.273720         0.982168
 H        -0.038485        -0.555591         1.687631
 H        -0.770459         0.021000         0.126774
 H        -0.230421        -1.663588         0.375582
 H         3.082579        -0.279164         1.857021
 H         4.479402        -0.366693        -0.856405
 H         3.722510        -1.888399        -0.406173
 H         1.543835        -0.614481        -3.101660
 H         3.235160         1.595664        -1.467200
 H         1.431989         1.548562        -1.733441
 H         1.623484         2.172577         1.882335
