19
Iteration:  2524charge 0 multiplicity 1
 C         0.025308        -0.589233         0.675605
 C         1.429096        -0.230012         0.154707
 C         2.829527        -0.120714         0.856549
 C         3.510698        -0.862043        -0.187970
 C         2.340970        -0.432550        -1.241959
 O         1.952525        -1.259333        -2.206745
 C         2.608403         1.039018        -1.366929
 C         2.146766         1.104833         0.141137
 O         1.458705         2.244204         0.726520
 H        -0.020755        -0.104418         1.759182
 H        -0.761748        -0.271164        -0.025909
 H        -0.172573        -1.609865         1.078228
 H         2.997743        -0.188866         1.876748
 H         4.593391        -0.559037        -0.431180
 H         3.377416        -1.972484        -0.093855
 H         2.777554        -1.330845        -2.807644
 H         3.700795         1.358952        -1.695225
 H         1.826618         1.571801        -1.992735
 H         2.055125         3.002397         0.750977
