19
Iteration:   423
 C        -0.106661        -0.445981         0.084727
 C         1.365234        -0.178884         0.157637
 C         2.614563        -0.232844         1.081208
 C         3.399468        -1.034136        -0.013331
 C         2.392415        -0.519452        -1.058117
 O         1.947257        -1.256790        -2.220327
 C         2.714257         1.007986        -1.170620
 C         2.236810         1.070655         0.249365
 O         1.785604         2.381114         0.695811
 H        -0.560661         0.166202         0.884374
 H        -0.460835        -0.010447        -0.981886
 H        -0.309771        -1.482852         0.000128
 H         2.544683        -0.182243         2.180841
 H         4.377026        -0.582170        -0.100545
 H         3.398231        -2.156235         0.164845
 H         2.460840        -0.921577        -3.034779
 H         3.659570         1.389619        -1.638382
 H         2.002390         1.458397        -1.852333
 H         1.429854         2.887365        -0.072221
