19
Iteration:  1944charge 0 multiplicity 1
 C         0.070998        -0.835746         0.492896
 C         1.400427        -0.182161         0.099365
 C         2.898212         0.116539         0.820647
 C         3.471528        -0.872915        -0.273192
 C         2.281082        -0.460406        -1.100379
 O         1.969494        -1.455727        -2.199735
 C         2.563500         1.149052        -1.254764
 C         2.075705         1.193294         0.151107
 O         1.619772         2.381810         0.767427
 H         0.033990        -0.564200         1.591869
 H        -0.790863        -0.521006        -0.103454
 H         0.234600        -1.850122         0.637477
 H         3.082494        -0.075173         1.906170
 H         4.442041        -0.775207        -0.835836
 H         3.363494        -1.856761         0.066406
 H         1.106734        -1.262037        -2.509470
 H         3.564891         1.527227        -1.523505
 H         1.722930         1.293454        -1.896583
 H         2.328168         2.549807         1.462443
