19
Iteration:  2709
 C         0.180134        -0.649569         0.734222
 C         1.509930        -0.333199         0.107368
 C         2.779466        -0.162776         0.797971
 C         3.495476        -0.920554        -0.295374
 C         2.281052        -0.364632        -1.236169
 O         1.884987        -1.220384        -2.171750
 C         2.620040         1.168623        -1.339699
 C         2.090113         1.161804         0.174591
 O         1.495873         2.245401         0.704059
 H        -0.545549        -0.985110        -0.098039
 H         0.201770        -1.377797         1.577368
 H        -0.324871         0.373865         1.031290
 H         2.925017        -0.206865         1.922452
 H         4.510583        -0.502630        -0.440924
 H         3.372643        -1.933722         0.097705
 H         2.641832        -1.573640        -2.740834
 H         3.596531         1.643175        -1.681804
 H         1.887067         1.678894        -2.004110
 H         1.810819         2.257481         1.607878
