19
Iteration:  1614
 C         0.081023        -0.625830         0.591509
 C         1.391031        -0.129419         0.052388
 C         2.646774        -0.084750         0.872967
 C         3.469725        -0.828039        -0.213028
 C         2.335732        -0.490481        -1.159280
 O         2.026775        -1.361610        -2.192461
 C         2.519620         0.988056        -1.337217
 C         2.146189         1.162020         0.113627
 O         1.722777         2.335923         0.760347
 H         0.038532        -0.153525         1.678279
 H        -0.859781        -0.243225         0.024585
 H        -0.077386        -1.634838         0.892099
 H         2.496322        -0.274479         1.927815
 H         4.491104        -0.373047        -0.353148
 H         3.656547        -1.886259        -0.002957
 H         2.187483        -0.848603        -3.003096
 H         3.565555         1.184380        -1.776414
 H         1.721816         1.279565        -2.017406
 H         1.365935         2.033913         1.597985
