19
Iteration:  4316charge 0 multiplicity 1
 C        -0.095330        -0.436734         0.453025
 C         1.300162        -0.136296         0.109138
 C         2.613674        -0.242742         0.852799
 C         3.382372        -0.968313        -0.100152
 C         2.294772        -0.547339        -1.129758
 O         2.025901        -1.264641        -2.212751
 C         2.564175         0.991517        -1.280243
 C         2.127893         1.137951         0.128300
 O         2.044670         2.339806         0.772477
 H        -0.228777        -0.752835         1.509396
 H        -0.850201         0.368067         0.163379
 H        -0.403075        -1.345137        -0.188926
 H         2.851839        -0.063553         1.866201
 H         4.359644        -0.622253        -0.434769
 H         3.348783        -2.091037        -0.125318
 H         2.372986        -0.869392        -3.043125
 H         3.484072         1.405105        -1.568760
 H         1.860829         1.471871        -1.976622
 H         1.489101         2.288090         1.559530
