19
Iteration:  3202charge 0 multiplicity 1
 C         0.137056        -0.772411         0.504697
 C         1.469440        -0.271855         0.145665
 C         2.795173        -0.120573         0.837825
 C         3.561217        -0.864227        -0.306337
 C         2.330049        -0.381618        -1.197553
 O         1.809853        -1.107823        -2.279021
 C         2.375179         1.112867        -1.308689
 C         2.061870         1.083544         0.209144
 O         1.767018         2.182706         1.002841
 H        -0.284931        -1.612221        -0.078432
 H         0.212731        -1.252693         1.479055
 H        -0.638007         0.041533         0.511311
 H         3.101983        -0.060153         1.874772
 H         4.456525        -0.450338        -0.609914
 H         3.535963        -1.959035        -0.214310
 H         2.100550        -0.610903        -3.042004
 H         3.430095         1.389114        -1.646544
 H         1.638622         1.450490        -1.992651
 H         2.106676         3.004380         0.642794
