19
Iteration:   417
 C        -0.059622        -0.381824         0.086703
 C         1.436751        -0.239302         0.102121
 C         2.532435        -0.216615         1.042112
 C         3.415288        -0.995124        -0.000868
 C         2.347885        -0.535088        -1.043493
 O         1.969354        -1.269896        -2.226200
 C         2.696196         0.992349        -1.130323
 C         2.189423         1.112024         0.240023
 O         1.803169         2.370659         0.708088
 H        -0.548673         0.207799         0.855743
 H        -0.365740         0.017179        -0.807337
 H        -0.397638        -1.485404         0.165786
 H         2.746435        -0.314254         2.105207
 H         4.474342        -0.662966        -0.180185
 H         3.379851        -2.073137         0.138300
 H         2.346958        -0.907782        -3.054721
 H         3.724374         1.238942        -1.448571
 H         1.950516         1.380353        -1.885640
 H         1.289249         2.716196        -0.027969
