19
Iteration:  2089charge 0 multiplicity 1
 C         0.026255        -0.637076         0.558502
 C         1.342585        -0.194867         0.066238
 C         2.925597         0.000185         0.785142
 C         3.564996        -0.834373        -0.272928
 C         2.341938        -0.483415        -1.110801
 O         2.017575        -1.311685        -2.115949
 C         2.520993         1.098234        -1.402437
 C         2.079344         1.124233         0.151900
 O         1.559936         2.196367         0.830638
 H        -0.388924         0.167554         1.244072
 H        -0.703994        -0.798447        -0.212795
 H         0.227626        -1.523608         1.101480
 H         3.240255         0.233046         1.760184
 H         4.362539        -0.470920        -0.928002
 H         3.589377        -1.930064        -0.062490
 H         1.066452        -1.315322        -2.474518
 H         3.549198         1.393219        -1.642093
 H         1.701991         1.536241        -2.009179
 H         2.150862         2.245401         1.592843
