19
Iteration:  4067charge 0 multiplicity 1
 C        -0.040341        -0.616374         0.335755
 C         1.387400        -0.215781         0.140218
 C         2.748524        -0.181682         0.901673
 C         3.307352        -1.091383        -0.201878
 C         2.296792        -0.397049        -1.078446
 O         1.837170        -1.135594        -2.233299
 C         2.719907         1.068547        -1.314979
 C         2.217257         1.124221         0.177575
 O         1.816210         2.337232         0.875443
 H        -0.305404        -1.547892        -0.223617
 H         0.009632        -1.048636         1.364521
 H        -0.809378         0.169983         0.245223
 H         2.833482        -0.411289         2.022696
 H         4.508412        -1.129608        -0.443237
 H         3.073892        -2.145728         0.096679
 H         1.764832        -0.461854        -2.936279
 H         3.853606         1.110257        -1.471938
 H         2.107107         1.540332        -2.110798
 H         2.518870         2.987317         0.781632
