19
Iteration:  3258
 C         0.121898        -0.872048         0.598372
 C         1.335441        -0.235872         0.128201
 C         2.736223        -0.051897         0.769579
 C         3.478388        -0.838259        -0.330305
 C         2.284147        -0.413950        -1.185414
 O         1.994411        -1.141282        -2.388999
 C         2.386946         1.204580        -1.286489
 C         2.038583         1.143253         0.191347
 O         1.922734         2.233049         1.008621
 H         0.291017        -1.985247         0.687844
 H        -0.381750        -0.329891         1.405036
 H        -0.692348        -0.742928        -0.177580
 H         2.858994        -0.295034         1.851407
 H         4.379562        -0.431108        -0.717183
 H         3.587433        -1.926324        -0.155685
 H         1.060266        -1.475375        -2.356289
 H         3.354039         1.548788        -1.836575
 H         1.607802         1.479020        -2.000254
 H         2.344986         2.041912         1.870920
