19
Iteration:  4090
 C        -0.032001        -0.470814         0.413918
 C         1.305045        -0.106931         0.153839
 C         2.669431        -0.240692         0.858823
 C         3.421470        -1.064869        -0.145826
 C         2.364499        -0.474806        -1.100918
 O         1.914271        -1.168947        -2.357203
 C         2.646595         1.062890        -1.216902
 C         2.227170         1.059392         0.187838
 O         1.811210         2.260595         0.838854
 H        -0.362329        -1.169576        -0.427464
 H        -0.137212        -1.122596         1.330902
 H        -0.660385         0.441425         0.426696
 H         2.907533        -0.108640         1.978146
 H         4.592554        -0.871260        -0.395958
 H         3.343988        -2.161640        -0.288427
 H         1.043997        -0.746415        -2.444779
 H         3.678120         1.391416        -1.552175
 H         1.815413         1.416348        -1.872255
 H         2.602156         2.861882         0.843516
