19
Iteration:  3236
 C         0.097128        -0.888068         0.503853
 C         1.358083        -0.222735         0.212599
 C         2.759522        -0.163212         0.836920
 C         3.440669        -0.862933        -0.407694
 C         2.245575        -0.340189        -1.271248
 O         2.072192        -1.236804        -2.335430
 C         2.262271         1.132613        -1.251163
 C         2.143530         1.166125         0.254624
 O         1.874243         2.357769         1.026989
 H         0.184903        -1.940410         0.121357
 H        -0.098260        -0.732610         1.550610
 H        -0.797888        -0.372719         0.073494
 H         3.068598        -0.159303         1.906396
 H         4.385231        -0.664606        -0.832478
 H         3.371458        -1.963200        -0.427771
 H         1.263791        -1.227713        -2.862961
 H         3.275216         1.528077        -1.702860
 H         1.472714         1.674541        -1.749499
 H         2.711172         2.639178         1.441634
