19
Iteration:   934charge 0 multiplicity 1
 C         0.005259        -0.625167         0.470544
 C         1.303347        -0.075826        -0.063125
 C         2.558319        -0.075846         0.842206
 C         3.285651        -1.077906        -0.134478
 C         2.391799        -0.446167        -1.170428
 O         2.095862        -1.253352        -2.209383
 C         2.743661         1.045069        -1.344463
 C         2.144113         1.207860         0.137601
 O         1.751389         2.348559         0.860935
 H        -0.218909        -0.165465         1.501615
 H        -0.786279        -0.553558        -0.195878
 H         0.203624        -1.703727         0.717256
 H         2.112223        -0.024846         1.810368
 H         4.414143        -0.853493        -0.256610
 H         3.206739        -2.116409         0.000349
 H         1.895150        -2.089523        -1.833527
 H         3.778384         1.255232        -1.657512
 H         2.153955         1.617782        -2.012394
 H         2.158353         2.270052         1.747955
