19
Iteration:  1509
 C         0.041495        -0.682715         0.517230
 C         1.420912        -0.205056         0.065532
 C         2.705687        -0.016376         0.802513
 C         3.462038        -0.941938        -0.215013
 C         2.354653        -0.495168        -1.167587
 O         1.870149        -1.329321        -2.161963
 C         2.637366         1.077950        -1.292360
 C         2.041754         1.219940         0.098960
 O         1.703842         2.323442         0.820561
 H        -0.381993        -0.084691         1.289504
 H        -0.699400        -0.466901        -0.231161
 H         0.041432        -1.875954         0.677594
 H         2.805179         0.055879         1.882281
 H         4.507395        -0.617064        -0.371103
 H         3.355721        -2.038122         0.103202
 H         2.634009        -1.867470        -2.149386
 H         3.701553         1.277530        -1.174540
 H         2.155891         1.768511        -2.080339
 H         2.373549         3.033842         0.912714
