19
Iteration:  2015charge 0 multiplicity 1
 C         0.017672        -0.704342         0.654921
 C         1.454340        -0.246496         0.294719
 C         2.869175        -0.064225         0.887271
 C         3.433279        -0.876240        -0.285213
 C         2.271237        -0.444354        -1.189689
 O         2.165346        -1.332100        -2.272161
 C         2.432867         1.089739        -1.401400
 C         1.973424         1.137477         0.122867
 O         1.646551         2.344689         0.795806
 H        -0.276908        -0.333059         1.669523
 H        -0.664107        -0.369209        -0.176560
 H         0.050017        -1.852943         0.912056
 H         3.214195         0.102967         1.877952
 H         4.520526        -0.732768        -0.451451
 H         3.180751        -1.998490        -0.064201
 H         1.721607        -1.039659        -3.050458
 H         3.445035         1.373520        -1.728416
 H         1.594492         1.574624        -1.959694
 H         2.456500         2.942931         0.704764
