19
Iteration:  4329charge 0 multiplicity 1
 C        -0.092709        -0.397236         0.463612
 C         1.314670        -0.119221         0.114848
 C         2.646969        -0.111783         0.980966
 C         3.371808        -1.083602        -0.223239
 C         2.321706        -0.473567        -1.107022
 O         2.017214        -1.351060        -2.274717
 C         2.589189         1.079324        -1.334882
 C         2.146337         1.042069         0.127699
 O         1.969494         2.309990         0.790021
 H        -0.093759        -0.886819         1.489816
 H        -0.758102         0.535949         0.521359
 H        -0.528258        -1.162339        -0.297004
 H         2.846754         0.099249         1.948431
 H         4.441835        -0.766555        -0.283842
 H         3.330913        -2.108574         0.077865
 H         2.272677        -0.716638        -2.948981
 H         3.693984         1.236113        -1.390201
 H         1.879169         1.539096        -1.949806
 H         1.217432         2.220779         1.431036
