19
Iteration:  4625charge 0 multiplicity 1
 C        -0.126293        -0.487986         0.360204
 C         1.301744        -0.198743         0.090138
 C         2.728539        -0.074201         0.930732
 C         3.391971        -0.983646        -0.091204
 C         2.325150        -0.528539        -1.040685
 O         2.014228        -1.246033        -2.230468
 C         2.553989         0.953937        -1.357295
 C         2.163903         1.084147         0.114233
 O         1.973350         2.366056         0.820873
 H        -0.720180         0.353029         0.137616
 H        -0.457879        -1.382576        -0.150356
 H        -0.263322        -0.668892         1.411164
 H         2.966764         0.299082         1.990879
 H         4.376373        -0.651697        -0.572941
 H         3.457012        -2.072344         0.079012
 H         1.816915        -2.196008        -2.034760
 H         3.536292         1.408400        -1.600585
 H         1.782551         1.502262        -2.030060
 H         1.305351         2.879737         0.365586
