19
Iteration:  2351
 C         0.089755        -0.659628         0.746748
 C         1.341443        -0.181122         0.101640
 C         2.692088        -0.190311         0.812124
 C         3.474643        -0.812127        -0.252919
 C         2.352974        -0.478224        -1.145915
 O         2.109210        -1.277907        -2.240482
 C         2.455728         1.084226        -1.306185
 C         2.084003         1.093264         0.163600
 O         1.702229         2.306656         0.694648
 H        -0.628770         0.140384         1.134337
 H        -0.634181        -1.132318         0.065694
 H         0.209325        -1.559201         1.338703
 H         2.748474        -0.181666         1.880825
 H         4.472735        -0.481114        -0.594916
 H         3.574371        -1.911645        -0.067136
 H         1.828909        -0.766979        -2.968375
 H         3.243404         1.645429        -1.775358
 H         1.550933         1.424287        -1.881997
 H         2.423730         2.656978         1.280179
