19
Iteration:   967charge 0 multiplicity 1
 C        -0.122780        -0.442523         0.389084
 C         1.343336        -0.192929         0.085970
 C         2.597980        -0.016728         0.892477
 C         3.425604        -0.933271        -0.081525
 C         2.339778        -0.524589        -1.167632
 O         2.123709        -1.262098        -2.331495
 C         2.578275         1.019385        -1.313153
 C         2.101377         1.072564         0.137670
 O         1.823230         2.234750         0.875128
 H        -0.486870         0.278931         1.170338
 H        -0.678898        -0.204756        -0.455010
 H        -0.365143        -1.508220         0.623290
 H         2.581814         0.072230         1.960839
 H         4.495177        -0.478917        -0.224514
 H         3.492654        -1.957167         0.148777
 H         2.181492        -2.181690        -2.070746
 H         3.642980         1.167986        -1.496397
 H         1.862340         1.536959        -1.896037
 H         2.618267         2.499837         1.330934
