19
Iteration:  4225
 C         0.041344        -0.517492         0.343632
 C         1.400878        -0.078198         0.052817
 C         2.695497        -0.118556         0.906944
 C         3.358927        -1.082803        -0.085042
 C         2.330682        -0.448538        -1.104367
 O         1.736482        -1.238937        -2.256734
 C         2.718352         1.033474        -1.224462
 C         2.192871         1.114438         0.106287
 O         1.842496         2.277891         0.896449
 H        -0.852539         0.159000         0.314662
 H        -0.154453        -1.309936        -0.470466
 H         0.040894        -1.102198         1.305656
 H         2.459321        -0.260609         2.030369
 H         4.374414        -1.079961        -0.480191
 H         3.129251        -2.187248         0.127609
 H         2.139449        -0.884250        -3.063224
 H         3.760906         1.296350        -1.312060
 H         2.132470         1.607209        -2.034282
 H         2.494974         2.882756         0.517671
