19
Iteration:  3829charge 0 multiplicity 1
 C        -0.064516        -0.827939         0.398589
 C         1.286677        -0.187665         0.127085
 C         2.672752        -0.181477         0.791947
 C         3.333993        -0.919118        -0.302730
 C         2.255875        -0.323428        -1.183232
 O         1.920528        -1.189598        -2.247518
 C         2.546455         1.136875        -1.284823
 C         2.132985         1.118992         0.249422
 O         2.055523         2.300237         1.008424
 H        -0.531552        -0.196458         1.198685
 H        -0.742222        -1.015241        -0.417293
 H         0.162250        -1.783390         0.826793
 H         2.939833        -0.231667         1.801867
 H         4.520487        -0.670767        -0.416831
 H         3.364758        -2.078138        -0.314745
 H         2.161433        -0.623458        -3.041470
 H         3.562995         1.263118        -1.785812
 H         1.724547         1.721745        -1.796730
 H         2.903016         2.623275         1.335437
