19
Iteration:  2952
 C         0.043735        -0.593638         0.655972
 C         1.410206        -0.284122         0.201974
 C         2.849208        -0.152473         0.823599
 C         3.503422        -0.785788        -0.316910
 C         2.312753        -0.430873        -1.232122
 O         2.089570        -1.170837        -2.368306
 C         2.260895         1.054558        -1.407687
 C         2.063074         1.105914         0.171949
 O         1.726148         2.213402         0.983306
 H        -0.286859         0.214074         1.357174
 H        -0.700556        -0.583771        -0.150734
 H         0.000132        -1.628127         1.041081
 H         3.085956        -0.149993         1.906141
 H         4.480877        -0.493215        -0.765363
 H         3.470415        -1.863020        -0.216480
 H         2.236479        -2.120792        -2.263694
 H         3.093529         1.623975        -1.928435
 H         1.312187         1.436483        -1.824221
 H         2.592976         2.494055         1.352688
