19
Iteration:   515charge 0 multiplicity 1
 C        -0.114991        -0.523127         0.314623
 C         1.343327        -0.159869         0.084602
 C         2.542804        -0.154598         0.927455
 C         3.257863        -1.064571        -0.003813
 C         2.355148        -0.457714        -1.122656
 O         2.151662        -1.195202        -2.317440
 C         2.698438         1.012919        -1.210980
 C         2.051543         1.108332         0.170598
 O         1.933766         2.407857         0.682969
 H        -0.455209         0.018163         1.220920
 H        -0.808022        -0.239429        -0.436290
 H        -0.315690        -1.651610         0.505109
 H         2.493223        -0.261277         2.023993
 H         4.340112        -1.019958         0.007171
 H         2.825456        -2.053413         0.074815
 H         2.871876        -1.833184        -2.351458
 H         3.761438         1.243303        -1.222471
 H         2.264338         1.494628        -2.102799
 H         1.710404         2.346295         1.614525
