19
Iteration:  1764
 C         0.141188        -0.781688         0.535767
 C         1.391913        -0.185738         0.170638
 C         2.721381        -0.050583         0.830314
 C         3.492378        -0.921197        -0.253437
 C         2.368612        -0.466070        -1.208602
 O         2.043157        -1.391334        -2.097883
 C         2.359281         1.153574        -1.298944
 C         2.040954         1.169908         0.164198
 O         1.742594         2.391601         0.732461
 H        -0.282780        -0.459523         1.454146
 H        -0.670111        -0.587243        -0.200863
 H         0.330547        -1.952477         0.587647
 H         2.782442        -0.210568         1.923854
 H         4.479152        -0.564256        -0.490059
 H         3.492508        -2.061429        -0.003506
 H         1.563228        -0.889218        -2.826153
 H         3.294219         1.657328        -1.641181
 H         1.422876         1.618075        -1.815657
 H         2.485841         2.995269         0.694866
