19
Iteration:  3187
 C         0.114150        -0.769908         0.583344
 C         1.489582        -0.263693         0.127146
 C         2.831546        -0.080904         0.802229
 C         3.621553        -0.825907        -0.321981
 C         2.308045        -0.501134        -1.157699
 O         1.682407        -1.072349        -2.321826
 C         2.579897         1.085238        -1.304184
 C         2.166823         1.105104         0.128500
 O         1.609408         2.146118         1.056097
 H        -0.241576        -1.269693        -0.315836
 H        -0.015215        -1.263715         1.605765
 H        -0.501998         0.150629         0.742171
 H         2.836944        -0.067036         1.908076
 H         4.686419        -0.411904        -0.653050
 H         3.602631        -1.933165        -0.078796
 H         2.264523        -0.942041        -3.125235
 H         3.519456         1.621135        -1.699361
 H         1.695631         1.531271        -1.873803
 H         1.790865         2.982466         0.574730
