19
Iteration:  2060
 C         0.116467        -0.602675         0.603462
 C         1.476758        -0.282313         0.116984
 C         2.762402        -0.035691         0.888218
 C         3.549323        -0.736683        -0.101642
 C         2.393997        -0.503414        -1.239656
 O         1.979684        -1.386056        -2.327898
 C         2.404897         1.060318        -1.461704
 C         2.091971         1.088812         0.194878
 O         1.614799         2.268253         0.897091
 H        -0.295653         0.220711         1.161407
 H        -0.554776        -0.682427        -0.315029
 H        -0.047079        -1.446021         1.378202
 H         2.963009        -0.074094         1.974608
 H         4.430889        -0.333444        -0.603762
 H         3.638167        -1.864935         0.078862
 H         1.238264        -0.939525        -2.759191
 H         3.323693         1.511672        -1.870228
 H         1.496059         1.309550        -2.035799
 H         2.403633         2.882745         0.989733
