19
Iteration:  3900
 C         0.048529        -0.476780         0.489499
 C         1.450279        -0.128525         0.111003
 C         2.769360        -0.226398         0.865614
 C         3.427438        -0.998059        -0.286776
 C         2.294263        -0.422023        -1.200289
 O         1.801843        -1.063574        -2.348050
 C         2.644023         1.092557        -1.209046
 C         2.197958         1.098760         0.164709
 O         1.667873         2.115442         0.911150
 H        -0.036698        -0.698698         1.551435
 H        -0.730707         0.320346         0.417504
 H        -0.293276        -1.288786        -0.201894
 H         3.190676        -0.198749         1.882573
 H         4.483702        -0.942708        -0.495689
 H         3.269129        -2.062097        -0.175701
 H         2.057936        -2.010128        -2.195370
 H         3.753794         1.329228        -1.326359
 H         2.030072         1.557081        -1.994118
 H         2.422610         2.467251         1.417538
