19
Iteration:    46charge 0 multiplicity 1
 C        -0.058614        -0.482728        -0.039613
 C         1.343276        -0.164928        -0.000196
 C         2.429463        -0.059689         0.986412
 C         3.352327        -0.874436         0.011617
 C         2.340714        -0.556285        -1.082705
 O         2.071759        -1.458411        -2.051178
 C         2.720251         1.007162        -1.329089
 C         2.123635         1.162534         0.118627
 O         1.944561         2.392904         0.937552
 H        -0.797303        -0.046621         0.654065
 H        -0.485629        -0.285581        -1.034136
 H        -0.138510        -1.527542         0.063915
 H         2.301444        -0.164981         2.075678
 H         4.409296        -0.618873        -0.296859
 H         3.264602        -1.908778         0.167549
 H         1.196365        -1.442561        -2.394890
 H         3.766132         1.297746        -1.494266
 H         2.039381         1.525986        -2.065757
 H         2.835897         2.409640         1.286449
