19
Iteration:  2286
 C         0.077025        -0.591582         0.517466
 C         1.475188        -0.309344         0.103254
 C         2.798149        -0.104229         0.861530
 C         3.486767        -0.834467        -0.313605
 C         2.240163        -0.401905        -1.116425
 O         2.108508        -1.352335        -2.130321
 C         2.372962         1.118941        -1.381782
 C         2.202577         1.134670         0.151481
 O         1.610643         2.228991         0.859611
 H        -0.328967         0.450093         0.864359
 H        -0.397254        -1.097298        -0.365055
 H         0.034453        -1.405146         1.279477
 H         3.087385        -0.001272         1.941019
 H         4.500773        -0.616924        -0.682817
 H         3.301115        -1.942831        -0.177339
 H         1.281628        -1.098751        -2.620763
 H         3.119761         1.750352        -1.895012
 H         1.430020         1.521665        -1.930653
 H         2.292196         2.829528         1.172771
