19
Iteration:  2806
 C         0.103670        -0.800222         0.490840
 C         1.446414        -0.314200         0.163468
 C         2.770752        -0.145421         0.869578
 C         3.490197        -0.814680        -0.287742
 C         2.243009        -0.422220        -1.153569
 O         1.967397        -1.265864        -2.284150
 C         2.455078         1.163118        -1.362229
 C         2.148316         1.191220         0.160653
 O         1.724119         2.324298         0.959621
 H         0.107613        -1.737289         1.090445
 H        -0.341496         0.019866         1.093228
 H        -0.390256        -1.014164        -0.511720
 H         2.802665        -0.230426         1.984888
 H         4.296012        -0.173524        -0.695450
 H         3.544121        -1.903761        -0.147114
 H         1.325041        -1.884478        -1.835602
 H         3.422726         1.612822        -1.768094
 H         1.687383         1.649434        -2.001673
 H         2.251083         3.006423         0.527332
