19
Iteration:  1251
 C        -0.114254        -0.426796         0.437376
 C         1.387928        -0.230389         0.110068
 C         2.661681        -0.165860         0.907408
 C         3.465831        -0.901739        -0.150881
 C         2.345951        -0.469589        -1.209003
 O         2.128065        -1.398963        -2.207301
 C         2.452990         1.069390        -1.280777
 C         2.141701         1.064196         0.180633
 O         1.867692         2.331451         0.729920
 H        -0.315675         0.091903         1.438067
 H        -0.856714         0.104882        -0.214221
 H        -0.307599        -1.468187         0.544628
 H         2.854631         0.018164         1.966405
 H         4.530482        -0.656501        -0.126589
 H         3.278322        -1.981937         0.028073
 H         2.093790        -1.042196        -3.073891
 H         3.427764         1.579971        -1.363512
 H         1.687775         1.554553        -1.827655
 H         1.243609         2.170855         1.434890
