19
Iteration:  3484charge 0 multiplicity 1
 C         0.144492        -0.729434         0.625827
 C         1.440287        -0.131120         0.161337
 C         2.788358        -0.191791         0.735198
 C         3.545307        -0.952305        -0.439460
 C         2.255758        -0.440924        -1.250812
 O         1.752159        -1.071123        -2.369720
 C         2.595741         1.229247        -1.223117
 C         2.160223         1.137795         0.234276
 O         1.662590         2.175424         1.002058
 H        -0.473961        -0.072130         1.211516
 H        -0.464599        -0.908092        -0.294705
 H         0.336419        -1.698458         1.121850
 H         2.879124        -0.270371         1.862877
 H         4.496432        -0.596270        -0.892512
 H         3.410486        -2.047418        -0.360679
 H         2.007539        -2.001314        -2.302467
 H         3.662110         1.621823        -1.406840
 H         1.928263         1.771281        -1.936657
 H         2.066426         2.056669         1.868389
