19
Iteration:   239charge 0 multiplicity 1
 C        -0.037870        -0.481123         0.026735
 C         1.360583        -0.025712        -0.029447
 C         2.557610        -0.049648         0.983381
 C         3.336651        -0.978381         0.026858
 C         2.403260        -0.465997        -1.080779
 O         1.875175        -1.398346        -2.113574
 C         2.810460         1.009121        -1.268028
 C         2.156655         1.141199         0.121837
 O         1.845257         2.357047         0.841119
 H        -0.641253        -0.269379         0.872838
 H        -0.726107        -0.490286        -0.856367
 H        -0.018525        -1.635909         0.025939
 H         2.509080        -0.135456         2.080258
 H         4.370636        -0.732415        -0.218946
 H         3.125995        -2.102911         0.331832
 H         2.524480        -2.127366        -2.364624
 H         3.882038         1.275290        -1.539669
 H         2.155573         1.470302        -2.010691
 H         1.899135         2.198245         1.785981
