19
Iteration:  4337
 C        -0.114532        -0.406490         0.481219
 C         1.338729        -0.163380         0.141365
 C         2.691468        -0.089021         0.927266
 C         3.383255        -1.068654        -0.162967
 C         2.312851        -0.476058        -1.147103
 O         2.012478        -1.355525        -2.294810
 C         2.655304         1.047308        -1.308867
 C         2.178428         1.145713         0.174467
 O         1.916157         2.287602         0.793918
 H        -0.105460        -0.945018         1.430250
 H        -0.644093         0.577720         0.567139
 H        -0.722360        -0.936046        -0.301586
 H         2.716106        -0.027342         2.015737
 H         4.418903        -0.927862        -0.478569
 H         3.077472        -2.140015         0.105247
 H         2.062865        -0.904166        -3.143663
 H         3.597545         1.319223        -1.650239
 H         1.981725         1.625295        -1.989086
 H         1.083738         2.138005         1.306766
