19
Iteration:  4153charge 0 multiplicity 1
 C        -0.102897        -0.283357         0.503646
 C         1.319660        -0.200751         0.046243
 C         2.688543        -0.134402         0.823434
 C         3.397768        -1.010182        -0.223448
 C         2.324960        -0.456364        -1.141879
 O         2.011081        -1.264872        -2.378829
 C         2.595364         1.043542        -1.353320
 C         2.190954         1.131686         0.207076
 O         1.844097         2.165303         0.983097
 H        -0.724553        -0.304504        -0.373621
 H        -0.429159        -1.162252         1.071767
 H        -0.328049         0.660134         1.037607
 H         2.650324        -0.149621         1.974944
 H         4.490870        -0.882420        -0.299764
 H         3.293259        -2.093845        -0.032011
 H         2.388573        -2.137179        -2.210855
 H         3.448471         1.556189        -1.884071
 H         1.830749         1.475680        -1.991810
 H         2.383161         2.119364         1.803646
