19
Iteration:  3097charge 0 multiplicity 1
 C        -0.039517        -0.779633         0.610683
 C         1.347175        -0.348524         0.118255
 C         2.809396        -0.053128         0.764644
 C         3.522667        -0.696887        -0.291731
 C         2.277540        -0.496109        -1.189772
 O         2.060614        -1.117603        -2.347262
 C         2.246589         1.087015        -1.370570
 C         2.047316         1.117825         0.137476
 O         1.914238         2.261616         1.004215
 H        -0.740957         0.075486         0.517281
 H        -0.488158        -1.777483         0.391094
 H         0.117549        -0.856502         1.710218
 H         3.003952        -0.078551         1.821882
 H         4.534220        -0.421825        -0.572665
 H         3.756121        -1.745175        -0.291601
 H         2.206324        -2.077350        -2.287987
 H         3.226159         1.536510        -1.751140
 H         1.278526         1.439854        -1.939872
 H         2.631452         2.213657         1.648616
