19
Iteration:   927
 C         0.056388        -0.639120         0.461924
 C         1.296461        -0.072781        -0.036022
 C         2.582025        -0.106751         0.830437
 C         3.272573        -1.010158        -0.095871
 C         2.293460        -0.418383        -1.162089
 O         2.105450        -1.214251        -2.225532
 C         2.756171         1.005530        -1.288560
 C         2.216927         1.191781         0.141255
 O         1.739547         2.336296         0.787770
 H        -0.306191        -0.348526         1.444832
 H        -0.843246        -0.643286        -0.216657
 H         0.267141        -1.750721         0.640319
 H         2.347311        -0.189552         1.920562
 H         4.330808        -0.878250        -0.251155
 H         2.860814        -2.044463         0.127408
 H         1.803628        -2.109603        -1.924928
 H         3.790559         1.182991        -1.609072
 H         2.103715         1.619560        -1.959763
 H         2.099885         2.394507         1.718697
