19
Iteration:  2796charge 0 multiplicity 1
 C         0.077858        -0.745822         0.514733
 C         1.414886        -0.205707         0.146713
 C         2.716859        -0.141777         0.851867
 C         3.560093        -0.817471        -0.312370
 C         2.290431        -0.437552        -1.200306
 O         2.049086        -1.296229        -2.321599
 C         2.297942         1.137960        -1.288940
 C         2.105730         1.120522         0.195004
 O         1.784791         2.331932         0.926558
 H         0.102926        -1.801042         0.944575
 H        -0.401688        -0.037705         1.246351
 H        -0.728272        -0.700789        -0.322203
 H         2.978204        -0.151184         1.925423
 H         4.616524        -0.439292        -0.474217
 H         3.674482        -1.912318        -0.144248
 H         1.470281        -1.992406        -1.960897
 H         3.298281         1.560918        -1.684819
 H         1.369687         1.465182        -1.810344
 H         2.372104         3.088078         0.829649
