19
Iteration:  4532
 C         0.018341        -0.399765         0.510150
 C         1.388152        -0.171739         0.076674
 C         2.701806        -0.100569         0.897084
 C         3.397915        -1.018613        -0.069913
 C         2.318838        -0.590711        -1.132199
 O         1.858142        -1.184737        -2.240357
 C         2.696099         0.953221        -1.281941
 C         2.172560         1.164112         0.073694
 O         1.778882         2.285372         0.793634
 H        -0.551503        -0.221548        -0.433152
 H         0.094744        -1.452376         0.748454
 H        -0.401892         0.253136         1.302256
 H         2.663613        -0.343036         1.868529
 H         4.463875        -0.970325        -0.272494
 H         3.205918        -2.131726         0.259179
 H         2.532574        -1.816738        -2.508879
 H         3.682299         1.378062        -1.578238
 H         2.061712         1.454752        -2.018108
 H         1.386279         2.782910         0.013917
