19
Iteration:  4727charge 0 multiplicity 1
 C        -0.136075        -0.524962         0.458462
 C         1.303383        -0.139032         0.094962
 C         2.675866        -0.027331         0.932402
 C         3.384948        -1.054598        -0.113713
 C         2.334750        -0.530326        -1.105943
 O         2.039927        -1.307497        -2.275275
 C         2.541896         0.941149        -1.288608
 C         2.157283         1.120600         0.126829
 O         2.019834         2.407828         0.786081
 H        -0.557730        -1.058206        -0.439718
 H        -0.010662        -1.398807         1.119709
 H        -0.514932         0.460745         0.885927
 H         2.508094        -0.081724         2.021111
 H         4.488003        -0.693051        -0.384488
 H         3.322931        -2.078268         0.154495
 H         1.797622        -0.661082        -2.957523
 H         3.699750         0.963702        -1.595194
 H         1.753681         1.330220        -1.916408
 H         1.084291         2.755399         0.800168
