19
Iteration:   830
 C        -0.070643        -0.444195         0.297937
 C         1.307965        -0.172502        -0.030443
 C         2.638622        -0.049919         0.840510
 C         3.403688        -1.022651        -0.200378
 C         2.344957        -0.513307        -1.126614
 O         2.136262        -1.358669        -2.198428
 C         2.675035         1.034501        -1.296757
 C         2.093309         1.185482         0.164879
 O         1.858774         2.326607         1.019592
 H        -0.409937         0.044021         1.193406
 H        -0.771680        -0.249531        -0.604624
 H        -0.180304        -1.476307         0.460812
 H         2.633869         0.116970         1.901423
 H         4.360466        -0.716222        -0.505355
 H         3.096198        -2.103591         0.050210
 H         1.941170        -2.216147        -1.696298
 H         3.657752         1.527258        -1.543603
 H         1.815951         1.308334        -2.007313
 H         0.895369         2.642262         0.937883
