19
Iteration:   974
 C        -0.124902        -0.439501         0.365107
 C         1.273495        -0.196919         0.118059
 C         2.629409        -0.063157         0.998063
 C         3.475172        -0.928568        -0.131285
 C         2.321060        -0.503382        -1.121122
 O         2.152597        -1.206895        -2.306613
 C         2.549568         0.948690        -1.320164
 C         2.156331         1.101695         0.137512
 O         1.802827         2.220562         0.832999
 H        -0.549008         0.240016         1.107024
 H        -0.662882        -0.082738        -0.614931
 H        -0.545538        -1.377785         0.643813
 H         2.711282        -0.080107         2.097387
 H         4.366972        -0.498250        -0.543801
 H         3.460766        -2.055911         0.058495
 H         2.213847        -2.195210        -2.124915
 H         3.586584         1.301033        -1.652667
 H         1.802466         1.463592        -1.995497
 H         2.627255         2.610852         1.159649
