19
Iteration:  2674
 C         0.083825        -0.750408         0.448216
 C         1.449461        -0.197281         0.201308
 C         2.841131         0.028821         0.788363
 C         3.615075        -0.910375        -0.122094
 C         2.358103        -0.505391        -1.123158
 O         1.785904        -1.247774        -2.224859
 C         2.481942         1.065444        -1.350932
 C         2.103951         1.150449         0.096482
 O         1.591313         2.277073         0.865529
 H        -0.610021        -0.491553        -0.390196
 H         0.153127        -1.865069         0.633232
 H        -0.117567        -0.380909         1.503435
 H         3.084465         0.022339         1.819573
 H         4.578017        -0.627041        -0.579565
 H         3.759956        -1.870841         0.368800
 H         2.187274        -0.761861        -3.017763
 H         3.468640         1.373086        -1.842845
 H         1.634896         1.230372        -2.041565
 H         2.265635         2.896871         1.154140
