19
Iteration:  3570charge 0 multiplicity 1
 C         0.033401        -0.726879         0.586868
 C         1.346139        -0.329218         0.101089
 C         2.737116        -0.227884         0.756442
 C         3.488308        -0.860246        -0.340189
 C         2.248677        -0.402947        -1.203039
 O         1.952549        -1.117531        -2.386664
 C         2.427199         1.211198        -1.249267
 C         2.250347         1.123217         0.227873
 O         1.903566         2.292772         0.952465
 H         0.000854        -0.921008         1.671713
 H        -0.706376         0.095700         0.341926
 H        -0.312498        -1.652437         0.083981
 H         3.016122        -0.354162         1.837006
 H         4.442821        -0.581801        -0.620734
 H         3.437826        -1.909336        -0.264124
 H         1.146706        -1.691390        -2.260904
 H         3.401657         1.637499        -1.470434
 H         1.544920         1.720101        -1.667200
 H         1.624497         1.985943         1.840420
