19
Iteration:  1831charge 0 multiplicity 1
 C         0.158126        -0.625753         0.703826
 C         1.492268        -0.285521         0.123601
 C         2.766998        -0.013072         0.883006
 C         3.488957        -0.962485        -0.145271
 C         2.445238        -0.436589        -1.174209
 O         1.961900        -1.275976        -2.218207
 C         2.445936         1.124119        -1.477594
 C         2.082130         1.130292         0.074007
 O         1.526799         2.242837         0.738501
 H         0.053791        -0.083148         1.619321
 H        -0.697616        -0.221933         0.107407
 H         0.084644        -1.734209         1.028759
 H         2.844972         0.113911         1.995470
 H         4.523766        -0.723187        -0.403757
 H         3.299321        -2.080617         0.023081
 H         1.981369        -0.868077        -3.110356
 H         3.420295         1.575853        -1.769262
 H         1.516525         1.498150        -1.939272
 H         2.249250         2.447137         1.380576
