19
Iteration:   416charge 0 multiplicity 1
 C        -0.049279        -0.373156         0.092010
 C         1.439894        -0.248395         0.092361
 C         2.523503        -0.212629         1.034654
 C         3.420658        -0.984964         0.001297
 C         2.344302        -0.537197        -1.044716
 O         1.972237        -1.272734        -2.222743
 C         2.692072         0.987067        -1.130484
 C         2.180314         1.119685         0.240018
 O         1.806556         2.367260         0.712088
 H        -0.549091         0.199866         0.853529
 H        -0.376964         0.041537        -0.837574
 H        -0.411270        -1.463338         0.199390
 H         2.766882        -0.332990         2.077134
 H         4.467417        -0.694843        -0.190878
 H         3.375158        -2.095027         0.144849
 H         2.349272        -0.884723        -3.074461
 H         3.752715         1.220764        -1.406418
 H         1.947428         1.369501        -1.869395
 H         1.260740         2.688458        -0.021229
