19
Iteration:   666charge 0 multiplicity 1
 C        -0.095795        -0.660934         0.279723
 C         1.264176        -0.200678         0.125847
 C         2.513290        -0.223395         0.975046
 C         3.334058        -0.986780        -0.057091
 C         2.266520        -0.531223        -1.081281
 O         2.158718        -1.098103        -2.302189
 C         2.617970         0.975684        -1.207824
 C         2.125409         1.128666         0.224801
 O         2.038073         2.510678         0.651092
 H        -0.541683        -0.328310         1.195727
 H        -0.576914        -0.252910        -0.699077
 H         0.046314        -1.710292         0.265545
 H         2.475158        -0.395273         2.057101
 H         4.380887        -0.686336        -0.308028
 H         3.283367        -2.108284         0.198029
 H         2.246311        -2.028887        -2.080860
 H         3.676834         1.198829        -1.513945
 H         1.918012         1.492965        -1.893900
 H         1.304885         2.787154         1.192466
