19
Iteration:  2744charge 0 multiplicity 1
 C         0.079405        -0.548549         0.756685
 C         1.399770        -0.257777         0.137880
 C         2.777898        -0.038432         0.822311
 C         3.475380        -0.817155        -0.289433
 C         2.291952        -0.504524        -1.219469
 O         2.052425        -1.246655        -2.406617
 C         2.438331         1.015675        -1.350763
 C         2.084813         1.079407         0.134845
 O         1.643799         2.301668         0.879145
 H        -0.328008        -1.462232         0.234694
 H         0.017870        -0.867655         1.790635
 H        -0.652584         0.268516         0.631248
 H         2.919838        -0.269997         1.881852
 H         4.476758        -0.489465        -0.606965
 H         3.733908        -1.849720         0.007762
 H         2.866832        -1.824844        -2.481983
 H         3.357128         1.450968        -1.734503
 H         1.503659         1.302128        -1.838931
 H         2.044171         2.294859         1.750478
