19
Iteration:  1408charge 0 multiplicity 1
 C        -0.005918        -0.457825         0.486349
 C         1.343004        -0.152045         0.040192
 C         2.686418        -0.073798         0.878051
 C         3.435170        -0.848103        -0.120408
 C         2.290029        -0.453093        -1.235988
 O         2.143648        -1.479007        -2.234003
 C         2.516028         1.081128        -1.356891
 C         2.115358         1.162478         0.127230
 O         1.772147         2.268486         0.854742
 H        -0.165419         0.101647         1.458388
 H        -0.825444        -0.226728        -0.202371
 H        -0.039868        -1.654099         0.718532
 H         2.885277        -0.033602         1.989190
 H         4.450178        -0.416886        -0.472685
 H         3.474426        -1.884956        -0.012208
 H         1.323868        -2.028305        -1.989064
 H         3.514884         1.489067        -1.768258
 H         1.728956         1.427452        -2.106535
 H         2.102858         2.060442         1.734389
