19
Iteration:   893charge 0 multiplicity 1
 C        -0.075529        -0.724596         0.426584
 C         1.383073        -0.229662         0.168928
 C         2.640708        -0.098336         0.889294
 C         3.438681        -1.103530         0.035394
 C         2.343078        -0.520256        -1.104106
 O         2.011658        -0.986676        -2.371816
 C         2.689605         0.948237        -1.206353
 C         2.082272         1.139260         0.120802
 O         1.772130         2.516701         0.645749
 H        -0.620707        -0.407595         1.351449
 H        -0.679061        -0.461456        -0.432350
 H        -0.033935        -1.867861         0.367149
 H         2.558561        -0.203928         1.952231
 H         4.533551        -1.202653        -0.113292
 H         3.128458        -2.126557         0.317114
 H         1.792749        -1.980361        -2.263949
 H         3.732132         1.250844        -1.317414
 H         1.995706         1.309801        -1.949645
 H         2.686284         2.869189         0.841924
