19
Iteration:  2026charge 0 multiplicity 1
 C         0.065108        -0.671040         0.684726
 C         1.386867        -0.229061         0.295510
 C         2.828793        -0.078488         0.832080
 C         3.401329        -0.880300        -0.311998
 C         2.341307        -0.431032        -1.164557
 O         2.189250        -1.313021        -2.173656
 C         2.398303         1.068059        -1.412729
 C         2.036018         1.104997         0.132507
 O         1.642894         2.310328         0.798652
 H        -0.473357        -0.026800         1.388291
 H        -0.564331        -0.550825        -0.265045
 H        -0.075872        -1.844446         0.747457
 H         3.240992        -0.181338         1.798135
 H         4.312764        -0.665476        -0.928176
 H         3.389112        -2.038332        -0.110455
 H         1.837635        -0.677773        -2.882083
 H         3.290532         1.621116        -1.733778
 H         1.540868         1.451889        -2.032174
 H         2.354088         2.922841         0.475471
