19
Iteration:   418
 C        -0.069425        -0.392564         0.083186
 C         1.429901        -0.229545         0.112327
 C         2.543728        -0.220326         1.049346
 C         3.410317        -1.005241        -0.003271
 C         2.353253        -0.532823        -1.043590
 O         1.966463        -1.266984        -2.229120
 C         2.700357         0.997052        -1.132250
 C         2.198717         1.103743         0.240558
 O         1.799839         2.373645         0.704724
 H        -0.549018         0.216355         0.863445
 H        -0.365322         0.000124        -0.802305
 H        -0.380382        -1.493336         0.130564
 H         2.719360        -0.293220         2.134792
 H         4.475670        -0.632865        -0.167735
 H         3.383719        -2.054745         0.134711
 H         2.345735        -0.929186        -3.028449
 H         3.695541         1.260186        -1.490003
 H         1.958382         1.393008        -1.896557
 H         1.313565         2.749117        -0.037647
