19
Iteration:   855charge 0 multiplicity 1
 C        -0.053202        -0.589010         0.377619
 C         1.303687        -0.123839         0.137825
 C         2.571807        -0.140206         0.924459
 C         3.443038        -0.909187        -0.041621
 C         2.321695        -0.468080        -1.157729
 O         2.023995        -1.243913        -2.336641
 C         2.678733         1.042563        -1.282820
 C         2.175105         1.126419         0.205609
 O         1.845902         2.270401         0.794497
 H        -0.656290        -0.288565         1.230619
 H        -0.537919        -0.251917        -0.605457
 H        -0.120404        -1.683988         0.268511
 H         2.562512        -0.186859         2.033386
 H         4.511437        -0.570876        -0.071403
 H         3.195607        -1.927359         0.254530
 H         1.906181        -2.139520        -2.002212
 H         3.745111         1.263727        -1.518993
 H         1.983636         1.651107        -1.921751
 H         1.864216         3.020257         0.158900
