19
Iteration:  1388
 C         0.023226        -0.605580         0.454048
 C         1.354838        -0.165486         0.025185
 C         2.609334        -0.025430         0.842004
 C         3.510783        -0.964613        -0.104420
 C         2.468480        -0.568709        -1.130649
 O         2.025483        -1.291183        -2.173294
 C         2.448868         1.121214        -1.407761
 C         2.118434         1.181472         0.067799
 O         1.792636         2.339181         0.849722
 H        -0.344716         0.027326         1.247587
 H        -0.689543        -0.365682        -0.330507
 H        -0.080650        -1.759559         0.697433
 H         2.558609        -0.090512         1.925154
 H         4.628835        -0.800931        -0.152419
 H         3.272043        -2.001208         0.154349
 H         1.385769        -2.009164        -1.869122
 H         3.404499         1.403452        -1.849084
 H         1.549074         1.435163        -2.069631
 H         2.482673         2.298072         1.573529
