19
Iteration:  2101charge 0 multiplicity 1
 C         0.017144        -0.729144         0.573185
 C         1.390681        -0.143208         0.063443
 C         3.011795         0.050329         0.833159
 C         3.450112        -0.858925        -0.349947
 C         2.292688        -0.380095        -1.174518
 O         2.042449        -1.417817        -2.120717
 C         2.496831         1.151122        -1.311013
 C         2.153925         1.123301         0.162432
 O         1.571957         2.225014         0.791008
 H        -0.375059         0.023301         1.286458
 H        -0.658065        -0.706459        -0.281094
 H        -0.124301        -1.703133         1.011679
 H         3.321357        -0.111233         1.832059
 H         4.516990        -0.802043        -0.604525
 H         3.293751        -1.931242         0.027659
 H         1.148206        -1.234347        -2.428889
 H         3.427179         1.597504        -1.648742
 H         1.726816         1.447579        -2.050661
 H         1.796203         2.513379         1.678591
