19
Iteration:  3924charge 0 multiplicity 1
 C        -0.030595        -0.375631         0.546785
 C         1.461195        -0.206364         0.059469
 C         2.776915        -0.177288         0.838783
 C         3.461495        -1.022646        -0.348389
 C         2.321419        -0.484349        -1.227559
 O         1.814134        -1.155878        -2.301474
 C         2.705385         1.098683        -1.260646
 C         2.237538         1.083003         0.231054
 O         1.586926         2.136736         1.016628
 H        -0.192213        -0.596303         1.618088
 H        -0.601606         0.592003         0.627521
 H        -0.653610        -0.969842        -0.193944
 H         2.869459        -0.542450         1.814973
 H         4.438138        -0.784565        -0.556474
 H         3.544296        -2.057024        -0.154057
 H         2.571817        -1.256001        -2.919198
 H         3.720096         1.292248        -1.675816
 H         1.955620         1.507610        -1.914032
 H         2.375583         2.701709         0.953838
