19
Iteration:  4766charge 0 multiplicity 1
 C        -0.115463        -0.410905         0.465554
 C         1.349098        -0.148082         0.086878
 C         2.698704        -0.094592         0.907046
 C         3.377696        -0.992642        -0.161452
 C         2.313923        -0.474283        -1.140878
 O         2.120747        -1.416440        -2.241749
 C         2.596986         1.050131        -1.335098
 C         2.177798         1.163608         0.172116
 O         1.907524         2.249763         0.846000
 H        -0.827773        -0.853356        -0.264732
 H        -0.136629        -1.020046         1.400351
 H        -0.698925         0.492986         0.697905
 H         2.737870        -0.073971         1.971133
 H         4.340331        -0.876443        -0.536477
 H         3.120300        -2.070213         0.018565
 H         1.157416        -1.266900        -2.410602
 H         3.516018         1.321348        -1.700102
 H         1.816396         1.615088        -1.935126
 H         1.417072         2.841769         0.277348
