19
Iteration:  1444
 C        -0.050138        -0.347525         0.559750
 C         1.385899        -0.279678         0.123507
 C         2.776087        -0.104994         0.911361
 C         3.529829        -0.928360        -0.194115
 C         2.396343        -0.535180        -1.134847
 O         2.140739        -1.309272        -2.258027
 C         2.454265         1.044137        -1.291204
 C         2.078861         1.059979         0.131004
 O         1.627754         2.302854         0.707099
 H        -0.123572         0.136009         1.544747
 H        -0.717626         0.126610        -0.192863
 H        -0.500553        -1.467120         0.768013
 H         3.141210        -0.113388         1.919429
 H         4.548429        -0.553306        -0.394491
 H         3.627538        -2.073379        -0.047430
 H         1.212315        -1.266860        -2.604130
 H         3.463885         1.272456        -1.681885
 H         1.656348         1.242803        -2.106295
 H         2.203288         2.465353         1.450239
