19
Iteration:  1639charge 0 multiplicity 1
 C         0.014127        -0.554186         0.644806
 C         1.427725        -0.260620         0.150022
 C         2.836581         0.007833         0.863658
 C         3.485284        -0.983908        -0.110764
 C         2.410367        -0.556451        -1.209741
 O         1.951246        -1.314226        -2.287550
 C         2.528763         1.168878        -1.346390
 C         2.043839         1.102217         0.017810
 O         1.660585         2.303599         0.750282
 H        -0.048309        -0.079157         1.725030
 H        -0.783574        -0.060080         0.054782
 H        -0.294130        -1.586381         0.980791
 H         2.930900         0.196972         1.958058
 H         4.570181        -0.708823        -0.398530
 H         3.451231        -1.952521         0.376848
 H         2.654268        -1.120433        -2.998655
 H         3.591489         1.537513        -1.428948
 H         1.726673         1.456909        -2.130399
 H         1.107539         1.968663         1.444110
