19
Iteration:  3034
 C         0.171690        -0.929251         0.549573
 C         1.474712        -0.186530         0.125921
 C         2.801618         0.016986         0.781854
 C         3.499744        -0.928556        -0.279299
 C         2.351034        -0.451513        -1.153464
 O         1.814622        -1.048248        -2.311465
 C         2.508663         1.079764        -1.296497
 C         2.106561         1.192701         0.158531
 O         1.675834         2.243094         0.882096
 H        -0.678402        -0.251201         0.759664
 H        -0.080074        -1.575345        -0.357411
 H         0.166982        -1.376904         1.570164
 H         2.940969        -0.181474         1.837935
 H         4.530379        -0.690356        -0.581426
 H         3.287555        -2.026167         0.034156
 H         1.189097        -1.707237        -2.058710
 H         3.471251         1.620239        -1.356848
 H         1.609130         1.455527        -1.868583
 H         2.401990         2.675047         1.354517
