19
Iteration:  4590charge 0 multiplicity 1
 C        -0.087834        -0.402536         0.473603
 C         1.326197        -0.196786         0.035053
 C         2.624947        -0.111347         0.953821
 C         3.362474        -0.947402        -0.104310
 C         2.310057        -0.534692        -1.154763
 O         2.171961        -1.350775        -2.271188
 C         2.502228         0.998159        -1.387280
 C         2.135453         1.071502         0.093530
 O         2.003756         2.410365         0.861295
 H        -0.715270         0.400027         0.199612
 H        -0.658158        -1.221167         0.089759
 H        -0.078023        -0.469386         1.553366
 H         2.994201         0.002174         2.032831
 H         4.390650        -0.676422        -0.448645
 H         3.280686        -2.106615         0.044252
 H         1.483253        -2.006230        -2.013521
 H         3.486161         1.320841        -1.715970
 H         1.547055         1.339547        -1.970368
 H         1.054812         2.513770         0.978501
