19
Iteration:  4566
 C        -0.092997        -0.354681         0.546722
 C         1.311597        -0.096976         0.115284
 C         2.685656        -0.093825         0.839879
 C         3.396542        -0.980984        -0.121309
 C         2.341456        -0.545748        -1.142095
 O         2.062012        -1.319713        -2.287445
 C         2.637587         1.013574        -1.346913
 C         2.148145         1.075115         0.059966
 O         1.880796         2.313437         0.842980
 H        -0.894667         0.166397         0.024266
 H        -0.342617        -1.352674         0.224724
 H        -0.295152        -0.323972         1.634654
 H         2.895106        -0.234366         1.880777
 H         4.438738        -0.761478        -0.314129
 H         3.179223        -2.116438         0.046529
 H         2.010868        -2.218186        -1.932027
 H         3.677486         1.282664        -1.437312
 H         1.843554         1.457810        -1.979997
 H         0.937666         2.579082         0.652069
