19
Iteration:  3574
 C         0.045511        -0.724314         0.559525
 C         1.378498        -0.275128         0.110018
 C         2.737225        -0.242610         0.751686
 C         3.496859        -0.901625        -0.329281
 C         2.245115        -0.391550        -1.173311
 O         1.930339        -1.104240        -2.384918
 C         2.428173         1.221464        -1.258254
 C         2.227886         1.107611         0.197444
 O         1.889829         2.271927         0.951998
 H         0.088941        -0.904454         1.632279
 H        -0.791152         0.013794         0.489007
 H        -0.252037        -1.681375         0.058242
 H         2.980230        -0.289535         1.783430
 H         4.521154        -0.478751        -0.649022
 H         3.349334        -2.043728        -0.205674
 H         1.269343        -1.746558        -2.121422
 H         3.467022         1.706765        -1.397394
 H         1.557904         1.714139        -1.724763
 H         1.641800         2.080004         1.868226
