19
Iteration:  3641
 C         0.093206        -0.820996         0.456231
 C         1.402050        -0.229645         0.167592
 C         2.743475        -0.218726         0.808413
 C         3.427541        -0.881120        -0.342202
 C         2.288903        -0.378380        -1.225471
 O         1.798194        -1.095214        -2.251742
 C         2.569796         1.108390        -1.238468
 C         2.148506         1.129788         0.251214
 O         1.845525         2.268893         0.912716
 H         0.089136        -1.006003         1.557085
 H        -0.774168        -0.212036         0.210766
 H         0.018044        -1.807477        -0.030890
 H         2.758015        -0.340118         1.895691
 H         4.490072        -0.693114        -0.526794
 H         3.276644        -1.987693        -0.136508
 H         1.375534        -0.454167        -2.895469
 H         3.622218         1.501663        -1.489099
 H         1.773045         1.580034        -1.840294
 H         2.643892         2.701448         1.265861
