19
Iteration:   772charge 0 multiplicity 1
 C        -0.075210        -0.319320         0.302280
 C         1.406110        -0.276826         0.125854
 C         2.711559        -0.211983         0.928307
 C         3.472779        -0.995394        -0.140667
 C         2.317328        -0.550281        -1.047465
 O         2.106475        -1.112754        -2.298167
 C         2.579004         0.942167        -1.177069
 C         2.069832         1.050322         0.195321
 O         1.680343         2.371511         0.653091
 H        -0.343246         0.441704         1.087009
 H        -0.697543        -0.118361        -0.478647
 H        -0.383009        -1.306782         0.780401
 H         2.684240        -0.606613         1.961515
 H         4.521306        -0.696615        -0.203931
 H         3.540013        -2.067169         0.017981
 H         2.126637        -2.076220        -2.254715
 H         3.620457         1.327992        -1.149178
 H         1.983903         1.286913        -1.973869
 H         2.237017         2.588788         1.396751
