19
Iteration:  4349charge 0 multiplicity 1
 C        -0.073740        -0.377955         0.524477
 C         1.406625        -0.146298         0.073305
 C         2.713037        -0.142930         0.824847
 C         3.326853        -1.007340        -0.116576
 C         2.327179        -0.537848        -1.211901
 O         2.012100        -1.325987        -2.247883
 C         2.681306         0.977697        -1.291112
 C         2.255035         1.116991         0.136601
 O         1.813213         2.362843         0.852967
 H        -0.407818        -1.079683         1.317917
 H        -0.573982         0.596800         0.824737
 H        -0.565621        -0.812383        -0.428503
 H         2.829946        -0.333600         1.804362
 H         4.411669        -1.056606        -0.301707
 H         3.014009        -2.069399         0.119611
 H         1.740687        -0.745555        -2.997524
 H         3.644730         1.233030        -1.483972
 H         1.841809         1.399969        -1.845127
 H         0.897573         2.260274         1.144967
