19
Iteration:  1734charge 0 multiplicity 1
 C         0.063822        -0.810112         0.462137
 C         1.416761        -0.182846         0.217689
 C         2.753200         0.076537         0.842572
 C         3.452007        -0.813640        -0.158363
 C         2.301539        -0.521438        -1.186090
 O         2.068806        -1.352256        -2.228669
 C         2.347690         1.008795        -1.467753
 C         2.104596         1.228804         0.105302
 O         1.827014         2.320193         0.940481
 H        -0.492054        -0.565604         1.336797
 H        -0.549230        -0.484038        -0.436642
 H         0.237810        -1.832575         0.666034
 H         2.995869         0.214273         1.929751
 H         4.483255        -0.480916        -0.333176
 H         3.468687        -1.850347         0.241535
 H         1.090649        -1.549422        -2.256092
 H         3.346531         1.213620        -1.843411
 H         1.486609         1.377903        -1.918987
 H         1.989351         3.207222         0.554169
