19
Iteration:  4500charge 0 multiplicity 1
 C        -0.101589        -0.553199         0.427086
 C         1.417360        -0.248454         0.100564
 C         2.634704        -0.074844         0.899833
 C         3.391802        -0.990477        -0.119876
 C         2.263249        -0.520932        -1.129718
 O         1.857439        -1.262040        -2.139825
 C         2.722653         0.993895        -1.343534
 C         2.265205         1.177653         0.165687
 O         1.917855         2.366427         0.777689
 H        -0.376493        -1.014742        -0.508562
 H        -0.223429        -1.344646         1.133899
 H        -0.728500         0.266303         0.813458
 H         2.589196        -0.100059         1.916228
 H         4.476063        -0.953623        -0.284801
 H         3.038158        -2.090286         0.223299
 H         2.317475        -1.055654        -2.988319
 H         3.780281         1.307895        -1.608565
 H         2.034218         1.651683        -2.073302
 H         1.231348         2.829837         0.291345
