19
Iteration:  1605
 C         0.039890        -0.672145         0.570551
 C         1.357226        -0.185463         0.070347
 C         2.697305        -0.118203         0.902052
 C         3.407310        -0.855012        -0.201308
 C         2.298326        -0.507028        -1.119578
 O         2.075854        -1.347935        -2.142675
 C         2.529977         1.037271        -1.404911
 C         2.158706         1.125218         0.131141
 O         1.758649         2.416445         0.741061
 H        -0.060249        -0.078331         1.604633
 H        -0.831221        -0.405061        -0.107427
 H         0.035675        -1.774830         0.669585
 H         2.543978        -0.329684         1.969389
 H         4.304259        -0.291800        -0.718777
 H         3.748255        -1.830551        -0.011710
 H         1.941392        -0.856501        -2.978915
 H         3.503174         1.514671        -1.823379
 H         1.730496         1.587520        -2.032553
 H         1.529628         2.042237         1.587115
