19
Iteration:  4215charge 0 multiplicity 1
 C        -0.000620        -0.527034         0.343483
 C         1.392791        -0.160625         0.052297
 C         2.711438        -0.194859         0.939448
 C         3.340181        -1.066741        -0.146420
 C         2.273112        -0.430335        -1.163168
 O         1.799801        -1.189392        -2.207210
 C         2.765167         1.035266        -1.251974
 C         2.164782         1.120733         0.196368
 O         1.837445         2.283601         0.848656
 H        -0.625065         0.402905         0.206834
 H        -0.479249        -1.405106        -0.171425
 H        -0.101745        -0.755417         1.458144
 H         2.853853        -0.205458         2.081320
 H         4.403249        -0.912687        -0.328445
 H         3.110015        -2.182020         0.033002
 H         2.343492        -0.902639        -2.954673
 H         3.783694         1.182764        -1.614756
 H         2.018306         1.497854        -2.022585
 H         2.385930         3.024312         0.527994
