19
Iteration:  4671
 C         0.050178        -0.584743         0.348325
 C         1.357524        -0.121520         0.007628
 C         2.647286        -0.093052         0.885963
 C         3.336902        -1.020403        -0.094081
 C         2.335231        -0.520411        -1.112043
 O         1.776983        -1.290329        -2.150235
 C         2.748617         1.066909        -1.250717
 C         2.231151         1.180082         0.085496
 O         1.832001         2.371355         0.837932
 H        -0.843391        -0.130358        -0.080016
 H         0.053945        -1.687104         0.425476
 H        -0.085733        -0.228497         1.413451
 H         2.881231        -0.256652         1.885862
 H         4.509168        -0.952946        -0.212160
 H         3.172539        -1.973444         0.336688
 H         2.541553        -1.808103        -2.455140
 H         3.790294         1.207780        -1.751458
 H         2.036394         1.311405        -2.062956
 H         1.369701         2.917123         0.166723
