19
Iteration:  4685charge 0 multiplicity 1
 C         0.005114        -0.584527         0.447160
 C         1.393134        -0.067804         0.011716
 C         2.643693        -0.049971         0.865311
 C         3.375313        -1.050467        -0.078732
 C         2.350847        -0.484032        -1.137814
 O         1.829260        -1.271705        -2.127334
 C         2.714611         0.976990        -1.352172
 C         2.158953         1.185064         0.153624
 O         1.897922         2.330065         0.806574
 H        -0.645579        -0.458425        -0.508279
 H        -0.095093        -1.731646         0.552958
 H        -0.369705        -0.182760         1.472597
 H         2.401473        -0.035640         1.939485
 H         4.448463        -1.034369        -0.326473
 H         3.057388        -2.101902         0.065060
 H         2.466095        -1.609624        -2.800908
 H         3.775094         1.367133        -1.377640
 H         2.109286         1.560248        -2.003849
 H         1.179271         2.766859         0.328699
