19
Iteration:  2840charge 0 multiplicity 1
 C         0.168234        -0.839715         0.475062
 C         1.492356        -0.175354         0.101903
 C         2.903638         0.009232         0.774968
 C         3.550993        -1.004027        -0.143718
 C         2.361991        -0.463657        -1.085948
 O         1.698474        -1.047102        -2.255010
 C         2.577458         1.154353        -1.316735
 C         2.073928         1.161875         0.104593
 O         1.606118         2.189516         0.898961
 H         0.282900        -1.471041         1.403684
 H        -0.719769        -0.210992         0.668595
 H        -0.258613        -1.485938        -0.371742
 H         2.932299         0.118836         1.840774
 H         4.484273        -0.818657        -0.708318
 H         3.818547        -1.996330         0.114894
 H         1.397160        -1.939674        -2.081629
 H         3.643629         1.570227        -1.389917
 H         1.811939         1.396318        -2.068995
 H         1.839912         3.026518         0.482178
