19
Iteration:  4502
 C        -0.103971        -0.552524         0.429092
 C         1.420712        -0.254011         0.103086
 C         2.624046        -0.069834         0.896172
 C         3.408358        -1.014704        -0.121713
 C         2.280356        -0.523845        -1.123933
 O         1.845082        -1.256499        -2.145865
 C         2.723454         0.996751        -1.326777
 C         2.260582         1.181351         0.151347
 O         1.904788         2.368501         0.781125
 H        -0.418286        -0.935018        -0.508594
 H        -0.180077        -1.336389         1.167286
 H        -0.664928         0.301806         0.831729
 H         2.609880        -0.029398         2.015424
 H         4.497932        -1.003533        -0.269169
 H         3.047444        -2.115067         0.118778
 H         2.372395        -1.086390        -2.960388
 H         3.744037         1.342745        -1.632025
 H         2.042451         1.685117        -2.095933
 H         1.250881         2.795738         0.202746
