19
Iteration:  3232charge 0 multiplicity 1
 C         0.081842        -0.893523         0.501032
 C         1.379706        -0.196809         0.205999
 C         2.750782        -0.129127         0.833255
 C         3.472812        -0.904952        -0.411441
 C         2.261949        -0.328986        -1.260064
 O         2.065464        -1.264628        -2.328068
 C         2.258725         1.184447        -1.230474
 C         2.154044         1.132724         0.291202
 O         1.868854         2.323550         1.000199
 H         0.077607        -1.906495         0.081847
 H        -0.176626        -0.890206         1.630690
 H        -0.825960        -0.315309         0.145275
 H         3.025944        -0.147620         1.862759
 H         4.444500        -0.494795        -0.866598
 H         3.235903        -2.008395        -0.427457
 H         1.283265        -0.936118        -2.915964
 H         3.209084         1.507214        -1.806662
 H         1.429705         1.648566        -1.777745
 H         2.693328         2.806699         1.285073
