19
Iteration:  3402charge 0 multiplicity 1
 C         0.048160        -0.808905         0.499534
 C         1.385955        -0.263975         0.170177
 C         2.817610        -0.136203         0.762374
 C         3.399424        -0.866204        -0.421418
 C         2.205616        -0.363339        -1.199143
 O         2.014415        -1.166152        -2.281261
 C         2.387169         1.247259        -1.246426
 C         2.085441         1.110752         0.208039
 O         2.029050         2.194308         1.053605
 H        -0.333998        -0.418622         1.502689
 H        -0.682313        -0.828069        -0.342656
 H         0.002372        -1.886679         0.846610
 H         3.021148        -0.322152         1.790463
 H         4.300427        -0.528166        -0.891084
 H         3.463344        -1.949163        -0.400133
 H         1.255483        -0.757377        -2.796421
 H         3.397344         1.692584        -1.592228
 H         1.527903         1.742816        -1.854081
 H         1.075749         2.344055         1.220700
