19
Iteration:  1874
 C         0.040330        -0.673841         0.598118
 C         1.477195        -0.280492         0.206944
 C         2.754261        -0.058855         0.883647
 C         3.528417        -0.731225        -0.281407
 C         2.309000        -0.572029        -1.203746
 O         2.009257        -1.442834        -2.260661
 C         2.420741         1.060669        -1.350697
 C         2.033910         1.201966         0.125817
 O         1.685814         2.337332         0.893015
 H        -0.274359         0.031805         1.275863
 H        -0.437942        -0.380711        -0.309085
 H        -0.177912        -1.652083         1.087821
 H         3.015792        -0.039559         1.946184
 H         4.447844        -0.299231        -0.622704
 H         3.809959        -1.837760        -0.133110
 H         2.150802        -0.921916        -3.045496
 H         3.406033         1.518170        -1.532021
 H         1.661105         1.275672        -2.118545
 H         2.162285         3.196987         0.707835
