19
Iteration:  1352charge 0 multiplicity 1
 C        -0.010262        -0.766192         0.390268
 C         1.405863        -0.128058         0.234187
 C         2.716893        -0.050168         0.927984
 C         3.391448        -0.959941        -0.117006
 C         2.279385        -0.507895        -1.072934
 O         1.881893        -1.157865        -2.267838
 C         2.615718         0.994484        -1.236307
 C         2.192320         1.225642         0.192530
 O         1.754911         2.370028         0.656429
 H        -0.768021        -0.495383         1.195250
 H        -0.337732        -0.805486        -0.663004
 H         0.210915        -1.943302         0.571912
 H         2.973874        -0.086352         2.019837
 H         4.368384        -0.737703        -0.702846
 H         3.393867        -1.967328         0.146009
 H         2.160798        -2.123184        -2.314870
 H         3.747481         1.026503        -1.440061
 H         2.214420         1.526680        -2.117156
 H         2.396672         3.102762         0.379007
