19
Iteration:  2343charge 0 multiplicity 1
 C         0.010597        -0.653123         0.706532
 C         1.321312        -0.264004         0.093102
 C         2.725987        -0.039916         0.826234
 C         3.518877        -0.778096        -0.258436
 C         2.265498        -0.516973        -1.155733
 O         2.139226        -1.238030        -2.239566
 C         2.424531         1.001315        -1.389587
 C         2.078332         1.080036         0.181201
 O         1.738890         2.260102         0.770996
 H        -0.515537         0.223235         1.110394
 H        -0.667806        -1.093028        -0.084530
 H         0.244847        -1.356490         1.575073
 H         2.880725        -0.153294         1.867359
 H         4.476018        -0.458961        -0.674505
 H         3.588384        -1.827590         0.130254
 H         2.008298        -0.614844        -2.943945
 H         3.374980         1.466243        -1.657895
 H         1.497637         1.383804        -1.853414
 H         2.576819         2.690911         1.096379
