19
Iteration:   259
 C         0.026290        -0.626450         0.083544
 C         1.387056        -0.015187        -0.009484
 C         2.561207        -0.128514         0.881738
 C         3.228235        -1.134839         0.077564
 C         2.367162        -0.438170        -1.071491
 O         1.950902        -1.312181        -2.012072
 C         2.760460         1.070907        -1.284684
 C         2.281876         1.151787         0.116389
 O         1.769112         2.399742         0.764377
 H        -0.480902        -0.236901         0.968502
 H        -0.652129        -0.128201        -0.750171
 H        -0.169796        -1.645446        -0.072635
 H         2.417706         0.093763         1.935766
 H         4.318519        -1.228106        -0.039102
 H         2.663127        -2.120852         0.138437
 H         2.596137        -1.439721        -2.685450
 H         3.831749         1.400251        -1.547762
 H         2.175442         1.511699        -2.069563
 H         2.090697         2.414644         1.680374
