19
Iteration:   272charge 0 multiplicity 1
 C        -0.077063        -0.574190         0.138207
 C         1.358382        -0.094720         0.037001
 C         2.562380        -0.117503         1.020478
 C         3.235625        -1.192413         0.071820
 C         2.477551        -0.485346        -1.088409
 O         1.965590        -1.316806        -2.154738
 C         2.814458         1.071571        -1.299389
 C         2.139015         1.248221         0.134572
 O         1.781127         2.433418         0.719849
 H        -0.465376        -0.488050         1.122507
 H        -0.726156        -0.159749        -0.670642
 H         0.137626        -1.662403         0.019003
 H         2.700180        -0.132191         2.112497
 H         4.316658        -1.293106         0.062174
 H         2.823694        -2.271947         0.285647
 H         2.440312        -1.070692        -3.005492
 H         3.887403         1.364798        -1.475792
 H         2.062600         1.468203        -1.987990
 H         2.404440         2.690075         1.437935
