19
Iteration:   757charge 0 multiplicity 1
 C        -0.114573        -0.419759         0.429554
 C         1.372647        -0.233604         0.153082
 C         2.636712        -0.285727         0.979235
 C         3.443662        -1.071768        -0.124696
 C         2.443078        -0.480701        -1.107830
 O         2.110023        -1.113681        -2.312048
 C         2.707114         1.025929        -1.209437
 C         2.066136         1.094577         0.158789
 O         1.634029         2.335183         0.665830
 H        -0.494945         0.374658         1.116655
 H        -0.615511        -0.183172        -0.596037
 H        -0.584522        -1.412126         0.718692
 H         2.895746        -0.028909         2.021274
 H         4.466419        -0.777543        -0.549592
 H         3.286100        -2.134446         0.030021
 H         1.878467        -2.004113        -2.096100
 H         3.734477         1.254840        -1.427220
 H         2.021074         1.591276        -1.896683
 H         2.506968         2.800578         0.782516
