19
Iteration:  2311charge 0 multiplicity 1
 C         0.005625        -0.553712         0.573745
 C         1.341483        -0.117324         0.339913
 C         2.797986        -0.014642         0.816182
 C         3.559909        -0.886881        -0.263438
 C         2.412154        -0.531051        -1.249580
 O         2.104178        -1.404662        -2.316309
 C         2.323863         1.037865        -1.421108
 C         2.036145         1.119235         0.120373
 O         1.680023         2.235332         0.986624
 H        -0.581096         0.286347         0.829386
 H        -0.177733        -1.152846        -0.379249
 H        -0.043833        -1.336864         1.400325
 H         3.268060         0.033629         1.776541
 H         4.566505        -0.609391        -0.547829
 H         3.563358        -1.861202         0.282146
 H         1.802840        -0.782392        -3.100507
 H         3.143080         1.802061        -1.798462
 H         1.422101         1.412632        -2.004086
 H         2.418525         2.834010         0.941740
