19
Iteration:  4076charge 0 multiplicity 1
 C        -0.074413        -0.597923         0.397552
 C         1.455320        -0.105205         0.172173
 C         2.700945        -0.247194         0.940458
 C         3.358910        -1.114755        -0.211723
 C         2.337946        -0.450348        -1.181122
 O         1.883636        -1.102561        -2.225360
 C         2.693951         1.016916        -1.298605
 C         2.174268         1.166936         0.167325
 O         1.827585         2.257349         0.836016
 H        -0.321011        -1.271179        -0.400652
 H        -0.309422        -1.036176         1.346337
 H        -0.845679         0.176837         0.312663
 H         2.801256        -0.271064         2.036036
 H         4.428241        -0.815653        -0.434999
 H         3.136771        -2.122158         0.149736
 H         1.380195        -0.509758        -2.818328
 H         3.773762         1.353601        -1.497180
 H         2.010471         1.600541        -1.912640
 H         2.462764         2.964588         0.732205
