19
Iteration:  1453charge 0 multiplicity 1
 C         0.006601        -0.359471         0.553437
 C         1.446254        -0.253266         0.139418
 C         2.760858        -0.133407         0.928297
 C         3.504336        -0.922282        -0.156883
 C         2.423279        -0.549036        -1.111835
 O         2.113117        -1.293863        -2.282598
 C         2.447765         0.973146        -1.359660
 C         2.061133         1.083800         0.133816
 O         1.623160         2.258342         0.689086
 H        -0.040412         0.162740         1.518777
 H        -0.627665         0.124161        -0.178710
 H        -0.394503        -1.454855         0.727023
 H         2.860780        -0.076645         2.002779
 H         4.583666        -0.688210        -0.386987
 H         3.365880        -1.967037         0.111390
 H         1.311825        -0.771805        -2.517325
 H         3.265317         1.627677        -1.664545
 H         1.529611         1.444247        -1.837998
 H         2.225808         2.651836         1.305052
