19
Iteration:  2030charge 0 multiplicity 1
 C         0.054370        -0.665505         0.664773
 C         1.410483        -0.168042         0.253956
 C         2.783989        -0.082563         0.772195
 C         3.458587        -0.883910        -0.291662
 C         2.341159        -0.441395        -1.138511
 O         2.175724        -1.305304        -2.172947
 C         2.340711         1.063158        -1.355302
 C         2.089917         1.098416         0.156582
 O         1.657348         2.273853         0.781055
 H        -0.476317        -0.050285         1.369737
 H        -0.539266        -0.578619        -0.270604
 H        -0.123049        -1.749222         0.931644
 H         3.101752        -0.174927         1.855205
 H         4.318406        -0.662557        -0.928768
 H         3.469432        -1.943191        -0.196769
 H         1.842323        -0.734103        -2.883532
 H         3.265762         1.586637        -1.710236
 H         1.534930         1.285834        -2.066873
 H         2.187620         3.046597         0.548575
