19
Iteration:  3154charge 0 multiplicity 1
 C         0.222816        -0.650383         0.611318
 C         1.518245        -0.252991         0.139508
 C         2.858636        -0.134401         0.783207
 C         3.548222        -0.913424        -0.413972
 C         2.303313        -0.402165        -1.218278
 O         1.747551        -1.105292        -2.215655
 C         2.586275         1.197059        -1.262668
 C         2.150854         1.092275         0.159389
 O         1.486139         2.089914         0.978478
 H        -0.516296        -0.752117        -0.210014
 H         0.077328        -1.676718         1.125148
 H        -0.204022         0.263202         1.094992
 H         2.994257        -0.137015         1.890004
 H         4.608700        -0.796781        -0.853148
 H         3.199603        -1.973969        -0.428777
 H         2.489391        -1.652336        -2.587481
 H         3.627178         1.675734        -1.466452
 H         1.681720         1.647335        -1.842090
 H         1.687726         2.985286         0.610537
