19
Iteration:  2671charge 0 multiplicity 1
 C         0.080485        -0.765738         0.426713
 C         1.475149        -0.221435         0.212513
 C         2.833835         0.019967         0.806633
 C         3.602456        -0.889302        -0.125498
 C         2.366110        -0.511247        -1.099727
 O         1.798529        -1.250034        -2.220391
 C         2.463257         1.073434        -1.391495
 C         2.090984         1.171642         0.098809
 O         1.614530         2.280461         0.879187
 H        -0.714857        -0.467682        -0.250751
 H         0.126689        -1.894979         0.491031
 H        -0.158304        -0.342123         1.446024
 H         3.044681         0.009755         1.856019
 H         4.561955        -0.644730        -0.592118
 H         3.710621        -1.894488         0.326363
 H         2.097806        -0.785698        -2.993797
 H         3.474928         1.383426        -1.796781
 H         1.613926         1.243896        -2.072662
 H         2.330794         2.947039         1.028167
