19
Iteration:  3576
 C         0.047177        -0.723046         0.542760
 C         1.405630        -0.235659         0.114497
 C         2.739099        -0.243028         0.755579
 C         3.496784        -0.930562        -0.329423
 C         2.247935        -0.385453        -1.168847
 O         1.917286        -1.093183        -2.381320
 C         2.435442         1.224031        -1.260859
 C         2.201050         1.095544         0.190673
 O         1.883603         2.257966         0.948607
 H         0.143912        -0.915453         1.631877
 H        -0.811419        -0.060259         0.551412
 H        -0.216310        -1.665711         0.064064
 H         2.956605        -0.253251         1.806746
 H         4.544141        -0.451620        -0.650793
 H         3.339484        -2.068192        -0.190670
 H         1.331013        -1.795224        -2.040436
 H         3.436027         1.714297        -1.411653
 H         1.594879         1.702482        -1.771562
 H         1.655201         2.114276         1.900865
