19
Iteration:  4775charge 0 multiplicity 1
 C        -0.089940        -0.388610         0.449540
 C         1.319425        -0.130351         0.022861
 C         2.700348        -0.100656         0.928546
 C         3.390349        -0.943235        -0.180911
 C         2.276553        -0.578333        -1.157225
 O         2.088030        -1.401276        -2.208307
 C         2.654080         1.060563        -1.322191
 C         2.184683         1.095955         0.087834
 O         1.861155         2.302989         0.932511
 H        -0.848128        -0.962668        -0.229980
 H        -0.041126        -1.030564         1.387573
 H        -0.434977         0.668701         0.709992
 H         3.016653        -0.075314         1.968627
 H         4.388231        -0.834964        -0.461031
 H         3.184911        -2.065215         0.060798
 H         1.164434        -1.380319        -2.570838
 H         3.605616         1.410520        -1.634936
 H         1.811273         1.328291        -1.972424
 H         1.412574         2.894503         0.331049
