19
Iteration:  2718
 C         0.147562        -0.587808         0.779077
 C         1.426180        -0.267494         0.069080
 C         2.765059        -0.179613         0.762893
 C         3.538581        -0.911557        -0.297355
 C         2.344864        -0.410970        -1.218479
 O         1.918936        -1.260746        -2.227469
 C         2.544255         1.195798        -1.292746
 C         2.137552         1.092308         0.128083
 O         1.494945         2.290046         0.736649
 H        -0.513405        -1.236291         0.121058
 H         0.207646        -1.309958         1.680628
 H        -0.502951         0.383382         1.003446
 H         2.974614        -0.189752         1.844634
 H         4.631793        -0.687360        -0.442990
 H         3.533313        -2.022235        -0.260008
 H         2.765118        -1.688273        -2.590748
 H         3.653769         1.584574        -1.444032
 H         1.703189         1.732233        -1.791258
 H         1.720116         2.370342         1.664644
