19
Iteration:  3092
 C        -0.056627        -0.793472         0.641823
 C         1.328782        -0.348229         0.082078
 C         2.773372        -0.044979         0.784306
 C         3.573013        -0.719108        -0.310576
 C         2.259273        -0.434784        -1.188164
 O         2.087556        -1.140843        -2.359431
 C         2.253223         1.066593        -1.366024
 C         2.017834         1.127231         0.168548
 O         1.948542         2.263848         0.988015
 H        -0.771199         0.004421         0.472175
 H        -0.488496        -1.725360         0.276255
 H         0.165264        -1.020754         1.685566
 H         3.075645        -0.017831         1.852658
 H         4.601177        -0.262535        -0.692388
 H         3.588731        -1.859670        -0.232156
 H         2.023516        -2.114607        -2.149080
 H         3.066466         1.627744        -1.783954
 H         1.410376         1.456028        -1.826954
 H         2.623877         2.284264         1.700717
