19
Iteration:  4609
 C        -0.146131        -0.451219         0.429851
 C         1.357879        -0.113712         0.203164
 C         2.614727        -0.084629         0.912468
 C         3.481912        -0.952018        -0.085714
 C         2.315137        -0.560761        -1.168444
 O         2.106250        -1.334018        -2.321196
 C         2.469415         0.982253        -1.352321
 C         2.153148         1.170779         0.154271
 O         2.032146         2.323972         0.807117
 H        -0.836230         0.403110         0.108299
 H        -0.353749        -1.260376        -0.299583
 H        -0.427334        -0.621787         1.506782
 H         2.639126        -0.098457         1.961685
 H         4.516726        -0.686549        -0.220328
 H         3.371305        -2.016402         0.265919
 H         1.468327        -2.020649        -2.065563
 H         3.407853         1.288763        -1.820170
 H         1.619387         1.238698        -1.919839
 H         1.107671         2.619531         0.698355
