19
Iteration:  4343
 C        -0.112074        -0.397537         0.494837
 C         1.386909        -0.163452         0.120620
 C         2.709698        -0.111177         0.848685
 C         3.353764        -1.018589        -0.097621
 C         2.306801        -0.515350        -1.199922
 O         2.012454        -1.337979        -2.273699
 C         2.671221         1.006136        -1.276301
 C         2.222325         1.150911         0.154316
 O         1.864681         2.315707         0.821157
 H        -0.338040        -1.007736         1.402661
 H        -0.582344         0.563628         0.709711
 H        -0.660888        -0.896582        -0.275931
 H         2.735605        -0.237537         1.994531
 H         4.394626        -1.088749        -0.510858
 H         3.053532        -2.043037         0.025616
 H         1.914765        -0.903861        -3.152297
 H         3.727571         1.375004        -1.712441
 H         1.925217         1.527310        -1.919639
 H         1.003984         2.225213         1.257250
