19
Iteration:  4373
 C        -0.020368        -0.343687         0.458006
 C         1.453196        -0.086151         0.115822
 C         2.678689        -0.173901         0.930222
 C         3.413286        -1.120708        -0.098778
 C         2.294655        -0.514850        -1.133719
 O         1.980071        -1.269306        -2.259614
 C         2.721228         1.030737        -1.309432
 C         2.190199         1.167827         0.088920
 O         1.774448         2.240608         0.805796
 H        -0.155111        -1.341139         1.006944
 H        -0.275288         0.365477         1.321129
 H        -0.815658        -0.394381        -0.382350
 H         2.650303        -0.093339         2.004437
 H         4.415914        -1.025657        -0.612235
 H         3.270596        -2.165110        -0.076718
 H         1.141811        -1.010359        -2.643375
 H         3.765905         1.221214        -1.501758
 H         1.955016         1.359108        -1.925334
 H         0.876099         2.600612         0.571529
