19
Iteration:  3855
 C         0.025726        -0.735277         0.410918
 C         1.333857        -0.153127         0.142995
 C         2.655390        -0.159542         0.808637
 C         3.353363        -0.992430        -0.237846
 C         2.284351        -0.436024        -1.185338
 O         1.963608        -1.153014        -2.372743
 C         2.529392         1.124341        -1.226687
 C         2.082111         1.092577         0.221575
 O         2.023148         2.293952         0.987844
 H        -0.370572        -0.428431         1.363472
 H        -0.780131        -0.422321        -0.291236
 H         0.236299        -1.794235         0.167943
 H         2.813342        -0.201776         1.928820
 H         4.316432        -0.646488        -0.508664
 H         3.465128        -2.031035        -0.025138
 H         1.004775        -0.942270        -2.531346
 H         3.515750         1.589222        -1.579770
 H         1.634094         1.624972        -1.681830
 H         2.869256         2.682736         1.217699
