19
Iteration:  3285
 C         0.118873        -0.803751         0.648327
 C         1.404870        -0.319396         0.081334
 C         2.788271        -0.163734         0.779254
 C         3.539698        -0.831323        -0.278812
 C         2.347916        -0.369242        -1.232043
 O         1.807286        -1.026905        -2.382189
 C         2.535816         1.210350        -1.299693
 C         2.102690         1.093352         0.182978
 O         1.754122         2.207078         0.943300
 H         0.376385        -1.625596         1.268509
 H        -0.412769         0.040052         1.061123
 H        -0.593803        -1.185781        -0.068850
 H         3.089296        -0.278609         1.800052
 H         4.630857        -0.497227        -0.435681
 H         3.628284        -1.920025        -0.209112
 H         1.090900        -1.649080        -2.072457
 H         3.435679         1.484247        -1.724646
 H         1.726185         1.572967        -1.960845
 H         1.645941         1.964146         1.889315
