19
Iteration:  3745charge 0 multiplicity 1
 C         0.053960        -0.420391         0.559619
 C         1.497059        -0.302739         0.089170
 C         2.807800        -0.274347         0.845322
 C         3.470138        -0.933437        -0.363953
 C         2.339038        -0.460619        -1.196025
 O         1.870542        -1.152593        -2.390689
 C         2.559235         1.183277        -1.261615
 C         2.192157         1.055743         0.298185
 O         1.635164         2.100949         0.994947
 H        -0.348465         0.548580         0.898386
 H        -0.702977        -0.739279        -0.214929
 H        -0.114397        -1.117782         1.429692
 H         3.179091        -0.385408         1.823526
 H         4.548200        -0.528957        -0.625821
 H         3.268819        -1.982608        -0.264884
 H         1.052071        -0.738759        -2.730135
 H         3.559570         1.394230        -1.593891
 H         1.918519         1.826277        -1.908263
 H         2.172459         2.936360         0.984037
