19
Iteration:  3384charge 0 multiplicity 1
 C         0.021550        -0.767495         0.597796
 C         1.313171        -0.197530         0.102813
 C         2.720254        -0.216875         0.733063
 C         3.515499        -0.739346        -0.411965
 C         2.300335        -0.332734        -1.279496
 O         1.907070        -1.315404        -2.331743
 C         2.421905         1.187482        -1.273508
 C         2.091232         1.141834         0.251045
 O         1.995860         2.170769         1.098349
 H        -0.210609        -0.551040         1.676870
 H        -0.810592        -0.380521        -0.015627
 H         0.180769        -1.834719         0.464595
 H         3.012916         0.042910         1.749945
 H         4.543383        -0.309738        -0.637816
 H         3.647494        -1.820271        -0.415451
 H         1.904380        -0.752714        -3.164691
 H         3.443218         1.552588        -1.470380
 H         1.629138         1.817779        -1.720908
 H         1.267876         2.209399         1.744584
