19
Iteration:  4355charge 0 multiplicity 1
 C        -0.021646        -0.350529         0.520530
 C         1.377137        -0.127528         0.047210
 C         2.694102        -0.154072         0.846516
 C         3.333839        -1.082608        -0.199881
 C         2.368626        -0.530698        -1.154372
 O         2.005667        -1.318976        -2.248422
 C         2.659725         0.949519        -1.319072
 C         2.239928         1.107737         0.157589
 O         1.781488         2.384950         0.865908
 H        -0.172844        -1.174672         1.232237
 H        -0.521630         0.554350         0.819164
 H        -0.490931        -0.551707        -0.414996
 H         2.921316        -0.305810         2.006125
 H         4.446035        -0.908454        -0.142601
 H         3.043489        -2.043265         0.249114
 H         1.550406        -0.667940        -2.791087
 H         3.807449         1.213076        -1.473424
 H         1.865029         1.454506        -1.969210
 H         0.806686         2.200599         0.932582
