19
Iteration:   237charge 0 multiplicity 1
 C        -0.051422        -0.490748         0.029135
 C         1.354992        -0.031961        -0.020772
 C         2.565805        -0.066261         0.980724
 C         3.347485        -0.969586         0.045933
 C         2.403665        -0.478922        -1.093915
 O         1.875209        -1.401740        -2.131306
 C         2.812927         1.010835        -1.267638
 C         2.149508         1.130554         0.124837
 O         1.848436         2.375700         0.848848
 H        -0.684928        -0.213632         0.879536
 H        -0.756636        -0.465453        -0.894940
 H        -0.058441        -1.555571         0.044048
 H         2.532299        -0.061614         2.069030
 H         4.367481        -0.651112        -0.237484
 H         3.190589        -2.071962         0.311527
 H         2.493297        -2.180201        -2.351416
 H         3.892318         1.300613        -1.532964
 H         2.202915         1.450659        -2.046839
 H         1.903471         2.198928         1.813351
