19
Iteration:  1978
 C         0.175899        -0.763866         0.653039
 C         1.397595        -0.184503         0.020346
 C         2.655362        -0.101646         0.864221
 C         3.519704        -0.799491        -0.125259
 C         2.336184        -0.426356        -1.165319
 O         1.996611        -1.270957        -2.185683
 C         2.562027         1.030712        -1.432711
 C         2.034311         1.185472         0.052426
 O         1.656721         2.305822         0.777958
 H         0.364933        -0.424533         1.729330
 H        -0.860671        -0.471447         0.528165
 H         0.149215        -1.802260         0.509229
 H         2.541980        -0.123130         1.986618
 H         4.537288        -0.385905        -0.357825
 H         3.546877        -1.878950        -0.076804
 H         1.113224        -1.087007        -2.432651
 H         3.504188         1.326279        -1.948015
 H         1.811632         1.236113        -2.214885
 H         2.320571         2.344084         1.503589
