19
Iteration:  4884charge 0 multiplicity 1
 C        -0.068658        -0.570432         0.492498
 C         1.261365        -0.090836         0.042158
 C         2.627174        -0.039351         0.901033
 C         3.313897        -0.955987        -0.075231
 C         2.352550        -0.511691        -1.129377
 O         2.037570        -1.338778        -2.132188
 C         2.672253         1.010359        -1.367236
 C         2.089697         1.115305         0.038581
 O         2.044751         2.314283         0.803330
 H        -0.905530         0.080160         0.252845
 H        -0.116487        -1.536719         0.019576
 H        -0.115603        -0.673183         1.513150
 H         2.608805         0.019595         1.971954
 H         4.290616        -0.618813        -0.359527
 H         3.216738        -2.084803         0.059982
 H         1.581768        -1.011993        -2.900853
 H         3.689754         1.124819        -1.681541
 H         1.967547         1.435992        -2.127952
 H         1.159458         2.737298         0.802005
