19
Iteration:  3385charge 0 multiplicity 1
 C         0.020933        -0.775758         0.595986
 C         1.305391        -0.192047         0.105690
 C         2.729716        -0.218026         0.736503
 C         3.509372        -0.742678        -0.417253
 C         2.293799        -0.332583        -1.278330
 O         1.913683        -1.308944        -2.327765
 C         2.420393         1.196319        -1.270369
 C         2.086957         1.133861         0.246952
 O         2.000468         2.169497         1.094244
 H        -0.233506        -0.510123         1.622127
 H        -0.790849        -0.380717        -0.005521
 H         0.215835        -1.821194         0.465372
 H         3.055925         0.052324         1.763280
 H         4.553152        -0.303587        -0.630001
 H         3.638324        -1.846339        -0.392572
 H         1.869584        -0.784672        -3.165580
 H         3.409439         1.556036        -1.431375
 H         1.655115         1.789401        -1.721995
 H         1.263980         2.214647         1.716184
