19
Iteration:  1716
 C         0.052498        -0.756150         0.464752
 C         1.328103        -0.172477         0.176276
 C         2.774302         0.055486         0.816933
 C         3.551241        -0.804861        -0.181789
 C         2.315998        -0.485603        -1.016313
 O         2.012902        -1.290637        -2.217538
 C         2.454698         1.051098        -1.391618
 C         2.014580         1.147413         0.019691
 O         1.848656         2.234089         0.895426
 H        -0.442412        -0.201325         1.384208
 H        -0.721583        -0.524592        -0.273019
 H         0.146493        -1.890474         0.644969
 H         3.110897         0.245201         1.840540
 H         4.472251        -0.427093        -0.724876
 H         3.547404        -1.875046        -0.057036
 H         1.393599        -1.961341        -1.842945
 H         3.478170         1.496716        -1.571727
 H         1.607626         1.243918        -2.163926
 H         1.391591         2.951246         0.379082
