19
Iteration:  4570
 C        -0.097799        -0.352515         0.545662
 C         1.313228        -0.120142         0.142272
 C         2.652188        -0.077870         0.782285
 C         3.410848        -1.000060        -0.148960
 C         2.339507        -0.519375        -1.117084
 O         2.092671        -1.338743        -2.278664
 C         2.606235         1.011655        -1.327731
 C         2.163431         1.115520         0.082495
 O         1.899890         2.296863         0.824935
 H        -0.821817         0.255115         0.017331
 H        -0.406867        -1.370873         0.222309
 H        -0.299021        -0.419487         1.601047
 H         2.634173        -0.216798         1.981528
 H         4.505935        -0.780779        -0.327846
 H         3.202343        -2.071836         0.071067
 H         1.877393        -2.259269        -1.986817
 H         3.678740         1.314003        -1.485060
 H         1.785793         1.506136        -2.037257
 H         0.984557         2.602344         0.802059
