19
Iteration:  2557
 C         0.168867        -0.624100         0.655859
 C         1.523024        -0.221211         0.114736
 C         2.804173        -0.062896         0.857630
 C         3.495769        -0.944217        -0.205856
 C         2.361086        -0.497520        -1.165712
 O         1.911433        -1.198166        -2.316004
 C         2.589922         1.047091        -1.311284
 C         2.067678         1.170732         0.204960
 O         1.438852         2.325095         0.685030
 H        -0.319370         0.385017         1.005228
 H        -0.474521        -0.984448        -0.156840
 H         0.255703        -1.364973         1.482401
 H         2.850888        -0.181514         1.908579
 H         4.563686        -0.825851        -0.557736
 H         3.471025        -2.041788        -0.002977
 H         2.076670        -2.167494        -2.253225
 H         3.672606         1.359215        -1.470314
 H         1.881098         1.499548        -2.065770
 H         1.936231         2.457411         1.501805
