19
Iteration:  1136charge 0 multiplicity 1
 C        -0.107734        -0.721867         0.356810
 C         1.271965        -0.193924         0.095392
 C         2.633342        -0.010824         0.938121
 C         3.325222        -0.998333        -0.049616
 C         2.283962        -0.520492        -1.144467
 O         2.070028        -1.149175        -2.348339
 C         2.641024         1.011680        -1.186974
 C         2.092192         1.140512         0.199118
 O         2.042271         2.382971         0.742931
 H        -0.586082        -0.080818         1.066151
 H        -0.675789        -0.361163        -0.568536
 H        -0.206635        -1.792930         0.660046
 H         2.832473         0.016824         1.992914
 H         4.389736        -0.769566        -0.291172
 H         3.122296        -1.972449         0.427756
 H         2.435726        -2.006046        -2.220231
 H         3.684590         1.204501        -1.491696
 H         2.028777         1.368000        -2.097209
 H         1.166692         2.752407         0.815583
