19
Iteration:   937charge 0 multiplicity 1
 C        -0.009741        -0.623511         0.482381
 C         1.318529        -0.057060        -0.072128
 C         2.531160        -0.061072         0.855841
 C         3.312111        -1.083994        -0.136544
 C         2.424115        -0.462506        -1.164213
 O         2.087972        -1.272626        -2.229144
 C         2.738983         1.073585        -1.364137
 C         2.107908         1.199421         0.122657
 O         1.760332         2.351522         0.888311
 H        -0.188020        -0.052989         1.426404
 H        -0.834191        -0.477877        -0.221388
 H         0.136644        -1.741449         0.729733
 H         2.169236        -0.058497         1.893401
 H         4.396300        -0.905674        -0.262778
 H         3.330612        -2.169156        -0.029274
 H         1.915016        -2.174027        -1.777472
 H         3.792065         1.283409        -1.566851
 H         2.076727         1.571072        -2.090596
 H         2.214535         2.228740         1.766401
