19
Iteration:  2344
 C         0.020763        -0.649766         0.713235
 C         1.320416        -0.255178         0.091693
 C         2.722016        -0.059956         0.819836
 C         3.513322        -0.777726        -0.258494
 C         2.272770        -0.518742        -1.156420
 O         2.137506        -1.239660        -2.232433
 C         2.427885         1.009797        -1.383869
 C         2.079037         1.079657         0.186120
 O         1.735894         2.264378         0.759900
 H        -0.533397         0.191390         1.086232
 H        -0.678221        -1.091696        -0.060426
 H         0.255852        -1.397833         1.547813
 H         2.862592        -0.156842         1.882224
 H         4.476458        -0.477246        -0.675130
 H         3.588758        -1.819054         0.118361
 H         1.986527        -0.605316        -2.967075
 H         3.385323         1.521233        -1.678959
 H         1.507068         1.379341        -1.845380
 H         2.556270         2.687735         1.115696
