19
Iteration:   891
 C        -0.084205        -0.730604         0.417810
 C         1.366921        -0.237171         0.147667
 C         2.639515        -0.112044         0.880844
 C         3.452773        -1.095671         0.034906
 C         2.343796        -0.531800        -1.083663
 O         2.010808        -0.972440        -2.355954
 C         2.675229         0.939183        -1.212326
 C         2.081670         1.154107         0.126993
 O         1.775556         2.515759         0.647125
 H        -0.591943        -0.363632         1.375454
 H        -0.616596        -0.404715        -0.419285
 H        -0.060164        -1.888554         0.383266
 H         2.609963        -0.252174         1.954748
 H         4.574578        -1.252923        -0.080806
 H         3.174356        -2.066626         0.338766
 H         1.815056        -1.924474        -2.271324
 H         3.707250         1.252665        -1.358335
 H         2.046391         1.304842        -1.989037
 H         2.706066         2.863293         0.764348
