19
Iteration:  3947
 C         0.008341        -0.308533         0.475068
 C         1.410054        -0.189999         0.146922
 C         2.753038        -0.248824         0.844117
 C         3.450040        -1.050343        -0.247774
 C         2.323927        -0.435761        -1.213071
 O         1.974156        -1.201644        -2.313985
 C         2.494604         1.119584        -1.319963
 C         2.171613         1.024165         0.243156
 O         1.731783         2.097061         0.953241
 H        -0.066015        -0.712260         1.517526
 H        -0.561587         0.600346         0.796166
 H        -0.662035        -0.842018        -0.240448
 H         2.814184        -0.171867         1.895457
 H         4.405428        -0.773700        -0.479908
 H         3.567198        -2.095817        -0.284501
 H         1.789587        -0.594955        -3.061269
 H         3.495539         1.380705        -1.739259
 H         1.749496         1.782447        -1.719074
 H         2.490131         2.731756         1.060928
