19
Iteration:  1361
 C         0.063920        -0.759671         0.372842
 C         1.342465        -0.125520         0.257444
 C         2.697025        -0.026995         0.904817
 C         3.429915        -0.948269        -0.120962
 C         2.261631        -0.540256        -1.082741
 O         1.921866        -1.158132        -2.260191
 C         2.592264         0.996261        -1.298569
 C         2.169379         1.140219         0.128413
 O         1.759803         2.370900         0.708299
 H        -0.591362        -0.247253         1.164364
 H        -0.415234        -0.616930        -0.668657
 H         0.069526        -1.820484         0.582247
 H         2.959815         0.245142         1.931657
 H         4.502238        -0.763690        -0.250821
 H         3.323592        -2.008640         0.180922
 H         1.925928        -2.158061        -2.183927
 H         3.682480         1.107139        -1.584762
 H         2.010926         1.679937        -1.881353
 H         2.594874         2.929620         0.716180
