19
Iteration:   279
 C        -0.090138        -0.588710         0.167586
 C         1.365620        -0.041519         0.082231
 C         2.541207        -0.101526         1.030729
 C         3.293716        -1.132906         0.061705
 C         2.452143        -0.574843        -1.096385
 O         1.997443        -1.288475        -2.233942
 C         2.797901         0.995819        -1.219111
 C         2.101700         1.197686         0.143901
 O         1.786388         2.441545         0.697355
 H        -0.491005        -0.351389         1.198025
 H        -0.806643        -0.085141        -0.594808
 H         0.045669        -1.621389        -0.006916
 H         2.517574        -0.231106         2.115882
 H         4.411078        -1.268624         0.044247
 H         2.816196        -2.053937         0.299313
 H         2.343398        -0.858942        -3.005234
 H         3.821903         1.390747        -1.470022
 H         2.257846         1.458416        -2.062173
 H         2.650576         2.698504         1.132464
