19
Iteration:  2418charge 0 multiplicity 1
 C         0.091245        -0.834111         0.532754
 C         1.433128        -0.264473         0.137768
 C         2.696454        -0.021624         0.854174
 C         3.521472        -0.806943        -0.052116
 C         2.370778        -0.477315        -1.135175
 O         1.893855        -1.255472        -2.220871
 C         2.606688         1.098369        -1.434947
 C         2.082479         1.215329         0.021124
 O         1.688071         2.335719         0.773275
 H        -0.139995        -0.752165         1.603873
 H        -0.682911        -0.152127         0.152548
 H        -0.008933        -1.803191         0.019255
 H         2.965042         0.079943         1.875476
 H         4.565114        -0.577148        -0.236256
 H         3.570709        -1.900134         0.170887
 H         0.902613        -1.276461        -2.056272
 H         3.606721         1.301453        -1.771560
 H         1.818402         1.260784        -2.191660
 H         2.122143         2.202379         1.616061
