19
Iteration:   435charge 0 multiplicity 1
 C        -0.174583        -0.516987         0.066235
 C         1.323053        -0.067753         0.143143
 C         2.659677        -0.171182         1.027774
 C         3.416674        -1.073249         0.043891
 C         2.417623        -0.480725        -1.085165
 O         1.946568        -1.203987        -2.147085
 C         2.730891         0.989156        -1.305848
 C         2.213410         1.103750         0.236803
 O         1.797023         2.334479         0.739844
 H        -0.933109        -0.383011         0.855283
 H        -0.719628        -0.058898        -0.925894
 H        -0.226467        -1.602167         0.089644
 H         2.657161        -0.224801         2.120110
 H         4.480557        -1.004134        -0.162314
 H         3.282165        -2.232042         0.170689
 H         2.612894        -1.071046        -2.855361
 H         3.788381         1.355488        -1.389009
 H         1.885743         1.482832        -1.712050
 H         1.892968         2.827619        -0.071278
