19
Iteration:  1522
 C         0.073654        -0.745077         0.435249
 C         1.347988        -0.146791         0.059528
 C         2.686342        -0.073904         0.871693
 C         3.498286        -0.848679        -0.117909
 C         2.316976        -0.441362        -1.161354
 O         1.855712        -1.340461        -2.193433
 C         2.641686         1.130719        -1.311379
 C         2.078826         1.149803         0.107217
 O         1.739613         2.363024         0.793976
 H        -0.168133        -0.239415         1.402758
 H        -0.749418        -0.663756        -0.343822
 H         0.173780        -1.873990         0.852738
 H         2.799846        -0.003561         1.978866
 H         4.520568        -0.638209        -0.427365
 H         3.394032        -2.006213         0.111346
 H         2.104980        -2.331871        -2.105160
 H         3.710422         1.408600        -1.513709
 H         1.943671         1.632964        -2.072147
 H         2.664983         2.638387         1.017741
