19
Iteration:   903
 C         0.001631        -0.716023         0.414861
 C         1.337967        -0.142271         0.184101
 C         2.661282        -0.065400         1.013720
 C         3.299143        -1.119738        -0.018706
 C         2.382268        -0.502448        -1.152770
 O         2.018974        -1.094346        -2.427623
 C         2.720357         1.010441        -1.215677
 C         2.106978         1.139301         0.160234
 O         1.770091         2.438747         0.629881
 H        -0.514846        -0.459421         1.395632
 H        -0.705519        -0.539567        -0.338109
 H         0.102831        -1.876750         0.481836
 H         2.596553         0.106062         2.077741
 H         4.348010        -0.853131        -0.271904
 H         3.031988        -2.130689         0.223275
 H         1.707744        -2.053192        -2.297619
 H         3.767779         1.284521        -1.335901
 H         2.123102         1.547770        -1.924112
 H         2.460152         2.803520         1.222097
