19
Iteration:    80charge 0 multiplicity 1
 C        -0.148011        -0.464626         0.032434
 C         1.354848        -0.176273         0.144119
 C         2.644511        -0.076422         1.036420
 C         3.310917        -1.062785         0.055749
 C         2.400434        -0.509321        -1.062318
 O         2.052898        -1.291126        -2.121742
 C         2.661295         0.963703        -1.309912
 C         2.172219         1.112724         0.153226
 O         1.805495         2.393192         0.697774
 H        -0.733801        -0.202923         0.984551
 H        -0.428742        -0.033453        -0.939689
 H        -0.181162        -1.487407        -0.096721
 H         2.871580         0.062163         2.137798
 H         4.446087        -1.248666        -0.032870
 H         2.893461        -1.991754         0.296500
 H         2.459343        -0.862209        -2.920691
 H         3.639352         1.347981        -1.620565
 H         1.847597         1.396068        -1.983457
 H         2.355044         2.513732         1.479373
