19
Iteration:  1492charge 0 multiplicity 1
 C         0.027253        -0.587388         0.511867
 C         1.381573        -0.098838         0.157350
 C         2.769569        -0.035077         0.838504
 C         3.453038        -0.941613        -0.180474
 C         2.323731        -0.495499        -1.124985
 O         1.962582        -1.321880        -2.190670
 C         2.650947         1.027576        -1.346603
 C         2.124818         1.129527         0.084278
 O         1.588327         2.282070         0.854059
 H        -0.234403        -0.105496         1.509496
 H        -0.784556        -0.334397        -0.266334
 H        -0.027238        -1.609422         0.745947
 H         2.962641        -0.062745         1.925725
 H         4.420319        -0.935015        -0.687446
 H         3.272227        -2.019760         0.036043
 H         2.607168        -1.392869        -2.878523
 H         3.674370         1.398315        -1.610355
 H         1.934618         1.321698        -2.093899
 H         2.235893         2.962759         0.545080
