19
Iteration:  1585
 C        -0.025095        -0.755526         0.489385
 C         1.365210        -0.143225         0.215267
 C         2.711005        -0.065662         0.846416
 C         3.471909        -0.859788        -0.211980
 C         2.349652        -0.433716        -1.177530
 O         2.094235        -1.404929        -2.212035
 C         2.428842         1.085215        -1.229328
 C         2.068832         1.149299         0.163278
 O         1.858692         2.407462         0.667274
 H        -0.373927        -0.348224         1.434079
 H        -0.688880        -0.523738        -0.296314
 H        -0.065674        -1.856000         0.644181
 H         2.949787         0.126171         1.911547
 H         4.574912        -0.797046        -0.225070
 H         3.311673        -1.908171        -0.012097
 H         1.291633        -1.102147        -2.768596
 H         3.396692         1.370415        -1.622752
 H         1.753217         1.506274        -2.022689
 H         1.826845         2.346634         1.633692
