19
Iteration:   162charge 0 multiplicity 1
 C        -0.126259        -0.309493         0.422774
 C         1.304430        -0.080618        -0.021244
 C         2.583940        -0.093441         0.970908
 C         3.221958        -1.152972         0.001007
 C         2.441250        -0.580217        -1.128151
 O         2.403479        -1.265347        -2.387430
 C         2.691337         0.899808        -1.306548
 C         2.128193         1.170153         0.141994
 O         1.649377         2.358518         0.821486
 H        -0.412952         0.482318         1.117207
 H        -0.898480        -0.045268        -0.380121
 H        -0.434210        -1.377512         0.926953
 H         2.508583        -0.217018         2.047913
 H         4.316792        -1.172274        -0.031533
 H         2.805240        -2.213579         0.279143
 H         1.905804        -2.056812        -2.295157
 H         3.721084         1.299653        -1.555370
 H         1.955261         1.259826        -2.006999
 H         2.418534         2.886301         1.086144
