19
Iteration:  4451
 C        -0.122075        -0.648537         0.320807
 C         1.305101        -0.140305         0.072003
 C         2.669817        -0.040460         0.863102
 C         3.308834        -0.959074        -0.055411
 C         2.324986        -0.491152        -1.153153
 O         2.037681        -1.350390        -2.145668
 C         2.553971         1.022165        -1.403715
 C         2.122437         1.198085         0.165206
 O         2.164118         2.362879         0.873328
 H        -0.490613        -1.447144        -0.424960
 H        -0.441225        -1.005144         1.382041
 H        -0.553081         0.373748         0.398724
 H         2.751027        -0.271577         2.059075
 H         4.426431        -0.846030        -0.185848
 H         3.004679        -1.954606         0.016055
 H         1.129478        -1.258623        -2.445716
 H         3.575289         1.330886        -1.687788
 H         1.794966         1.356750        -1.986354
 H         1.298922         2.805403         0.642479
