19
Iteration:  3721charge 0 multiplicity 1
 C         0.026879        -0.426242         0.645087
 C         1.417029        -0.169316         0.055814
 C         2.784536        -0.237189         0.795448
 C         3.496720        -0.932462        -0.366020
 C         2.311760        -0.468982        -1.245710
 O         1.916535        -1.130830        -2.338234
 C         2.460359         1.111384        -1.256954
 C         2.193230         1.007051         0.242261
 O         1.750219         2.068816         1.072524
 H        -0.510539         0.464785         1.032791
 H        -0.521112        -0.574149        -0.286931
 H        -0.188303        -1.321787         1.197529
 H         2.859194        -0.224446         1.880241
 H         4.451832        -0.542257        -0.637906
 H         3.398115        -2.031884        -0.292998
 H         2.305829        -0.979033        -3.252231
 H         3.349652         1.602692        -1.700696
 H         1.574491         1.619096        -1.725919
 H         1.984660         2.926229         0.720689
