19
Iteration:  1551
 C         0.058045        -0.838814         0.375771
 C         1.344192        -0.180882         0.178304
 C         2.698838        -0.068242         0.887028
 C         3.481628        -0.913742        -0.076269
 C         2.286121        -0.489698        -1.068133
 O         2.012345        -1.217690        -2.217589
 C         2.410419         1.011714        -1.378695
 C         2.184919         1.254633         0.095742
 O         1.846291         2.430356         0.741318
 H        -0.369303        -0.251883         1.193910
 H        -0.635929        -0.650839        -0.397275
 H         0.243229        -1.886317         0.528891
 H         2.810605         0.196058         1.941855
 H         4.525582        -0.583453        -0.347010
 H         3.289512        -1.908153         0.178777
 H         1.228933        -1.840570        -2.291699
 H         3.404614         1.212295        -1.793613
 H         1.475512         1.240407        -1.967431
 H         2.382451         2.353725         1.516671
