19
Iteration:  4196
 C        -0.152677        -0.397164         0.445699
 C         1.329246        -0.158355         0.186041
 C         2.682545        -0.244416         0.871540
 C         3.448379        -1.070650        -0.192295
 C         2.381420        -0.462184        -1.170299
 O         1.863196        -1.159387        -2.275997
 C         2.636011         1.020867        -1.218643
 C         2.305160         1.074780         0.158264
 O         1.787855         2.289252         0.826669
 H        -0.872591         0.178709        -0.138617
 H        -0.304279        -1.464062         0.130373
 H        -0.582238        -0.466805         1.495307
 H         2.756087        -0.387024         2.002615
 H         4.484320        -0.921070        -0.532946
 H         3.310802        -2.176413        -0.005013
 H         2.647175        -1.291312        -2.839536
 H         3.692839         1.391811        -1.541721
 H         1.980977         1.570373        -1.959575
 H         2.560072         2.905489         0.731393
