19
Iteration:  4286
 C        -0.105102        -0.560286         0.337773
 C         1.323267        -0.193838         0.056070
 C         2.639807        -0.161842         0.912549
 C         3.370021        -0.992190        -0.057358
 C         2.288402        -0.542399        -1.130259
 O         1.896743        -1.297896        -2.274564
 C         2.573444         1.046279        -1.243355
 C         2.196478         1.147510         0.210070
 O         2.049558         2.425906         0.768208
 H        -0.341622        -0.193454         1.357272
 H        -0.812461        -0.299385        -0.471680
 H        -0.112223        -1.675396         0.343860
 H         2.829806        -0.016069         1.910832
 H         4.410034        -0.700043        -0.390951
 H         3.207719        -2.038112         0.072129
 H         2.269187        -0.939799        -3.086626
 H         3.680251         1.527582        -1.484878
 H         1.835675         1.598038        -1.807634
 H         2.116522         2.339879         1.743437
