19
Iteration:  4244
 C        -0.007112        -0.685773         0.304154
 C         1.353091        -0.076149         0.050405
 C         2.652749        -0.102341         0.874637
 C         3.313079        -1.098204        -0.088647
 C         2.317435        -0.499051        -1.192779
 O         1.752205        -1.234553        -2.183669
 C         2.788530         1.044444        -1.286624
 C         2.250764         1.200988         0.158002
 O         1.860647         2.345003         0.910464
 H        -0.625810         0.163209         0.568548
 H        -0.511535        -1.129134        -0.495917
 H        -0.085554        -1.349274         1.102315
 H         2.949020        -0.025240         1.877284
 H         4.435069        -1.039583        -0.087179
 H         3.095169        -2.062878         0.263924
 H         2.087717        -0.802674        -2.994489
 H         3.749206         1.253608        -1.742902
 H         2.138938         1.464472        -2.003964
 H         2.589073         2.924717         1.170961
