19
Iteration:   432charge 0 multiplicity 1
 C        -0.154535        -0.498290         0.057850
 C         1.308714        -0.089528         0.163447
 C         2.672090        -0.199018         1.054841
 C         3.401944        -1.076960         0.027830
 C         2.425916        -0.489422        -1.091299
 O         1.938000        -1.219277        -2.165950
 C         2.736634         0.993359        -1.289886
 C         2.231854         1.089425         0.249952
 O         1.786936         2.350949         0.724755
 H        -0.897980        -0.260821         0.905985
 H        -0.639712        -0.071603        -0.896258
 H        -0.287617        -1.549653         0.080030
 H         2.536275        -0.172042         2.160285
 H         4.516309        -0.851531        -0.147047
 H         3.365781        -2.160390         0.160231
 H         2.635343        -0.986866        -2.898187
 H         3.744639         1.388945        -1.436831
 H         1.846761         1.513165        -1.690694
 H         1.769522         2.858780        -0.125740
