19
Iteration:  3652
 C         0.076134        -0.814093         0.495004
 C         1.411548        -0.252679         0.085312
 C         2.664503        -0.235628         0.869982
 C         3.455983        -0.980194        -0.323189
 C         2.272370        -0.322474        -1.161604
 O         1.895759        -1.098751        -2.286910
 C         2.488362         1.184838        -1.288012
 C         2.183873         1.088262         0.204626
 O         1.864101         2.300541         0.980133
 H        -0.093441        -0.796133         1.591074
 H        -0.716064        -0.171959         0.086414
 H        -0.099779        -1.830951         0.112540
 H         2.973929        -0.428491         1.904340
 H         4.347894        -0.525035        -0.640182
 H         3.486474        -2.115350        -0.326619
 H         1.011524        -0.728937        -2.557574
 H         3.522322         1.336500        -1.758819
 H         1.761669         1.775269        -1.871021
 H         2.672697         2.813282         0.900988
