19
Iteration:  4742charge 0 multiplicity 1
 C        -0.063479        -0.482361         0.457245
 C         1.339003        -0.146463         0.167592
 C         2.626568        -0.205103         0.938101
 C         3.374322        -1.001410        -0.095258
 C         2.301098        -0.536860        -1.115828
 O         2.112184        -1.323962        -2.280803
 C         2.568545         1.011219        -1.339986
 C         2.123293         1.163552         0.132931
 O         2.005883         2.377244         0.781359
 H        -0.753531        -0.845482        -0.366555
 H        -0.191475        -1.174153         1.350022
 H        -0.766950         0.398065         0.711017
 H         2.983875        -0.037356         1.978096
 H         4.377857        -0.846898        -0.344212
 H         3.190020        -2.127170         0.072592
 H         1.372503        -0.909583        -2.757196
 H         3.435139         1.503088        -1.721168
 H         1.746559         1.356293        -2.002984
 H         1.164559         2.765503         0.449697
