19
Iteration:  2256charge 0 multiplicity 1
 C         0.019368        -0.618746         0.581023
 C         1.317318        -0.221538         0.100349
 C         2.859029        -0.046874         0.862873
 C         3.712204        -0.764519        -0.281234
 C         2.366058        -0.496304        -1.136421
 O         1.919569        -1.352233        -2.281453
 C         2.546375         1.039364        -1.301613
 C         2.121977         1.089665         0.148887
 O         1.541947         2.285876         0.827407
 H        -0.429046         0.141925         1.132701
 H        -0.729626        -0.734389        -0.247436
 H         0.119514        -1.642296         1.012598
 H         3.077392        -0.004694         1.934280
 H         4.652778        -0.380450        -0.645322
 H         3.838195        -1.863364        -0.083104
 H         0.920642        -1.204212        -2.323890
 H         3.527853         1.596654        -1.511482
 H         1.753029         1.350504        -2.043266
 H         2.230221         2.594981         1.460466
