19
Iteration:   336
 C        -0.154656        -0.322577         0.418599
 C         1.222712        -0.160345         0.005301
 C         2.442370        -0.171733         0.906927
 C         3.271559        -1.121760         0.007647
 C         2.461708        -0.582322        -1.214000
 O         2.421870        -1.353487        -2.305159
 C         2.671607         1.091193        -1.189103
 C         2.071121         1.128193         0.125986
 O         1.891903         2.372241         0.830270
 H        -0.398021         0.256714         1.296529
 H        -0.993578        -0.085958        -0.376554
 H        -0.474008        -1.317729         0.711633
 H         2.442329        -0.213998         2.001493
 H         4.349483        -1.017292         0.060421
 H         3.023713        -2.222637         0.247531
 H         1.563684        -1.249119        -2.837247
 H         3.785444         1.357225        -1.301257
 H         2.001547         1.557127        -1.919217
 H         1.522864         2.874024         0.090490
