19
Iteration:   828
 C        -0.056710        -0.425450         0.300152
 C         1.313477        -0.157416        -0.032824
 C         2.623102        -0.040210         0.814706
 C         3.410588        -1.029268        -0.207102
 C         2.348124        -0.505299        -1.115798
 O         2.143856        -1.354457        -2.178723
 C         2.661136         1.034325        -1.299116
 C         2.082249         1.168382         0.158253
 O         1.859616         2.308085         1.013759
 H        -0.502661         0.093722         1.179785
 H        -0.701189        -0.232964        -0.552116
 H        -0.227463        -1.510499         0.449426
 H         2.609586         0.119748         1.882405
 H         4.407571        -0.775561        -0.504811
 H         3.114696        -2.070442         0.086671
 H         1.962744        -2.179630        -1.748511
 H         3.642042         1.503658        -1.557289
 H         1.830263         1.252812        -1.975389
 H         0.900045         2.573781         1.073956
