19
Iteration:  1170
 C         0.075240        -0.507575         0.378475
 C         1.348162        -0.011111        -0.030145
 C         2.545260        -0.188431         0.892980
 C         3.357149        -1.030094        -0.109178
 C         2.415078        -0.435879        -1.113706
 O         1.990443        -1.302151        -2.205772
 C         2.747821         1.074148        -1.358195
 C         2.118927         1.227860         0.125025
 O         1.759834         2.212888         0.928329
 H        -0.338409        -0.113756         1.296173
 H        -0.707145        -0.442625        -0.509665
 H        -0.081994        -1.591041         0.523721
 H         2.543097        -0.216582         1.971580
 H         4.403200        -0.699673        -0.158508
 H         3.486390        -2.128076         0.160211
 H         1.573227        -2.061546        -1.739461
 H         3.765655         1.340350        -1.685179
 H         1.951170         1.347274        -2.160752
 H         1.770389         3.021923         0.431619
