19
Iteration:  1080charge 0 multiplicity 1
 C        -0.049301        -0.567193         0.396824
 C         1.338141        -0.212063        -0.023829
 C         2.528589        -0.061963         0.907877
 C         3.399419        -0.960195        -0.065437
 C         2.316099        -0.486383        -1.152739
 O         2.130499        -1.255951        -2.326573
 C         2.616312         1.082350        -1.199164
 C         2.157973         1.158464         0.195907
 O         1.859540         2.346085         0.740297
 H        -0.181614        -0.038464         1.294421
 H        -0.756995        -0.286633        -0.356105
 H        -0.195979        -1.691077         0.449809
 H         2.374858        -0.143026         2.006812
 H         4.491132        -1.141530        -0.074881
 H         3.086707        -1.962793         0.157161
 H         1.717212        -2.148197        -2.051747
 H         3.651075         1.186700        -1.435085
 H         1.840978         1.507408        -1.905292
 H         2.112020         2.422266         1.679672
