19
Iteration:  4902
 C        -0.077378        -0.613386         0.500845
 C         1.292803        -0.066425         0.039753
 C         2.546435        -0.064370         0.828883
 C         3.380913        -0.966757        -0.052776
 C         2.278928        -0.524249        -1.172507
 O         2.030305        -1.459892        -2.202495
 C         2.660683         1.010325        -1.374290
 C         2.197558         1.227410         0.083693
 O         1.985708         2.385378         0.913911
 H        -0.732162         0.231103         0.195439
 H        -0.277976        -1.626882         0.041873
 H         0.068440        -0.944763         1.613942
 H         2.637562         0.115143         1.894399
 H         4.551023        -0.856621        -0.294659
 H         3.025867        -1.938802         0.210234
 H         1.468350        -1.009622        -2.849907
 H         3.788318         1.334170        -1.499636
 H         2.061938         1.417043        -2.178934
 H         1.460907         3.007222         0.359425
