19
Iteration:  3317
 C         0.121158        -0.689386         0.567254
 C         1.515213        -0.258923         0.182747
 C         2.985912        -0.204735         0.776558
 C         3.478830        -0.960913        -0.415447
 C         2.273231        -0.388680        -1.181220
 O         1.794095        -0.966244        -2.375048
 C         2.512039         1.123298        -1.178378
 C         2.166830         1.074780         0.315725
 O         1.563833         2.255816         0.852596
 H         0.162015        -1.192010         1.548086
 H        -0.483954         0.113381         0.912283
 H        -0.193781        -1.325409        -0.222340
 H         3.544214        -0.331093         1.667741
 H         4.524939        -0.715931        -0.825107
 H         3.281096        -2.015762        -0.270665
 H         2.156804        -1.836690        -2.509968
 H         3.456450         1.304278        -1.626996
 H         1.624006         1.529841        -1.746982
 H         1.212127         2.077608         1.732659
