19
Iteration:  3295
 C         0.161275        -0.766212         0.630803
 C         1.495033        -0.244416         0.125317
 C         2.785239        -0.154132         0.842299
 C         3.557429        -0.920895        -0.397201
 C         2.329506        -0.408692        -1.223609
 O         1.795019        -0.988016        -2.372608
 C         2.521750         1.171373        -1.271052
 C         2.131806         1.094768         0.223876
 O         1.676838         2.206127         0.897223
 H         0.115321        -1.415073         1.511872
 H        -0.393432         0.001787         1.127203
 H        -0.247041        -1.192197        -0.247632
 H         2.739153        -0.423392         1.886167
 H         4.455941        -0.422609        -0.890762
 H         3.633057        -1.980505        -0.191473
 H         1.316060        -1.836061        -2.132311
 H         3.518246         1.519591        -1.425312
 H         1.701878         1.611719        -1.929597
 H         1.484456         1.969428         1.833644
