19
Iteration:  2963
 C         0.070813        -0.634930         0.625026
 C         1.520949        -0.321017         0.281329
 C         2.808425        -0.166214         0.831554
 C         3.500594        -0.831288        -0.408281
 C         2.287156        -0.425796        -1.202994
 O         1.992855        -1.173999        -2.384727
 C         2.352982         1.175855        -1.332276
 C         2.102153         1.098708         0.215548
 O         1.645466         2.236600         0.929122
 H        -0.389408         0.197506         1.229574
 H        -0.344397        -0.727368        -0.368910
 H        -0.176938        -1.476324         1.297363
 H         3.215464        -0.208793         1.867265
 H         4.584705        -0.718680        -0.691886
 H         3.401072        -1.909499        -0.181518
 H         2.270559        -2.043613        -2.144143
 H         3.334635         1.494093        -1.799030
 H         1.493123         1.317567        -1.994113
 H         2.331624         2.904366         1.066211
