19
Iteration:  3945charge 0 multiplicity 1
 C         0.030092        -0.300536         0.483482
 C         1.398659        -0.195805         0.151950
 C         2.755351        -0.280741         0.843304
 C         3.440757        -1.025651        -0.242409
 C         2.339602        -0.435482        -1.205933
 O         1.949204        -1.208464        -2.321264
 C         2.509392         1.109941        -1.315440
 C         2.161255         1.045638         0.236683
 O         1.727236         2.091662         0.953577
 H        -0.055190        -0.735016         1.511559
 H        -0.547511         0.638909         0.755347
 H        -0.649566        -0.871833        -0.234870
 H         2.826192        -0.147939         1.870962
 H         4.510117        -0.761562        -0.525505
 H         3.513506        -2.109651        -0.297324
 H         1.882255        -0.631441        -3.128056
 H         3.564478         1.448233        -1.690768
 H         1.779817         1.788701        -1.769078
 H         2.386149         2.795853         1.087328
