19
Iteration:   696charge 0 multiplicity 1
 C        -0.104892        -0.743137         0.447891
 C         1.186531        -0.058141        -0.028633
 C         2.524348        -0.084088         0.896726
 C         3.256680        -1.041311         0.024703
 C         2.380644        -0.467386        -1.173132
 O         2.144912        -1.208279        -2.343261
 C         2.804418         1.094559        -1.317950
 C         2.085150         1.188030         0.093359
 O         1.996418         2.360174         0.887110
 H        -0.417943        -0.449399         1.494982
 H        -0.950297        -0.570607        -0.387777
 H         0.141469        -1.814954         0.461747
 H         2.387735        -0.089685         1.993135
 H         4.330900        -1.089272        -0.093542
 H         3.014711        -2.116138         0.323864
 H         1.998920        -2.091726        -1.970123
 H         3.939498         1.264893        -1.391527
 H         2.275197         1.673576        -2.059611
 H         1.095312         2.776123         0.716032
