19
Iteration:  3104
 C         0.025808        -0.731419         0.614568
 C         1.416948        -0.312312         0.193573
 C         2.788759        -0.067791         0.772908
 C         3.487604        -0.741542        -0.325933
 C         2.309383        -0.505824        -1.178085
 O         2.003842        -1.118931        -2.373705
 C         2.250869         1.120993        -1.364194
 C         2.082779         1.091472         0.124403
 O         1.836567         2.238365         1.002710
 H        -0.745376         0.019015         0.395939
 H        -0.305626        -1.682290         0.316891
 H        -0.044186        -0.603373         1.696196
 H         2.928099        -0.117757         1.848309
 H         4.557706        -0.194766        -0.584828
 H         3.751109        -1.825525        -0.060732
 H         2.462175        -1.944072        -2.446471
 H         3.190034         1.382014        -1.745055
 H         1.437732         1.297266        -1.959979
 H         2.628447         2.093985         1.534998
