19
Iteration:   812
 C        -0.108807        -0.377518         0.288510
 C         1.341322        -0.100520         0.096654
 C         2.659868        -0.129372         0.878267
 C         3.413155        -0.952734        -0.038235
 C         2.402505        -0.504140        -1.144294
 O         2.127346        -1.302037        -2.223239
 C         2.528253         1.053731        -1.384514
 C         2.104924         1.192198         0.058037
 O         1.858929         2.186631         0.921879
 H        -0.391689         0.280760         1.141771
 H        -0.657554        -0.100054        -0.639529
 H        -0.316924        -1.436108         0.597474
 H         2.749335        -0.156790         1.978017
 H         4.534011        -0.807294        -0.252436
 H         3.192346        -2.001076         0.158528
 H         2.113812        -2.232232        -1.868233
 H         3.568194         1.302995        -1.575702
 H         1.900277         1.572996        -2.124100
 H         1.102345         1.819707         1.460949
