19
Iteration:  4725charge 0 multiplicity 1
 C        -0.120825        -0.533464         0.468084
 C         1.290448        -0.141429         0.090416
 C         2.676412        -0.007230         0.925259
 C         3.395331        -1.045422        -0.110218
 C         2.318923        -0.548804        -1.127309
 O         2.029685        -1.296285        -2.261442
 C         2.557463         0.931724        -1.279912
 C         2.163175         1.118959         0.124355
 O         2.023091         2.409789         0.790332
 H        -0.554233        -0.954114        -0.412832
 H        -0.052407        -1.403569         1.081461
 H        -0.585654         0.370571         0.826285
 H         2.477257        -0.103465         1.949731
 H         4.495585        -0.720329        -0.337362
 H         3.306064        -2.067707         0.163640
 H         1.872587        -0.677326        -2.983693
 H         3.660666         0.987631        -1.571988
 H         1.767153         1.347524        -1.949546
 H         1.069962         2.683665         0.798777
