19
Iteration:  1553charge 0 multiplicity 1
 C         0.043311        -0.830041         0.382831
 C         1.360632        -0.195826         0.173152
 C         2.712814        -0.063886         0.888191
 C         3.482782        -0.917087        -0.085513
 C         2.275467        -0.496904        -1.048176
 O         2.017820        -1.226375        -2.225772
 C         2.411243         1.037204        -1.372695
 C         2.159378         1.252782         0.102932
 O         1.855089         2.436461         0.735851
 H        -0.387438        -0.286547         1.150007
 H        -0.629521        -0.663176        -0.405211
 H         0.248441        -1.926564         0.500024
 H         2.862074         0.241571         1.940149
 H         4.510538        -0.626889        -0.299856
 H         3.261938        -1.952931         0.221872
 H         1.257927        -1.764672        -2.337726
 H         3.360071         1.202345        -1.853352
 H         1.488355         1.209904        -2.003021
 H         2.377110         2.354875         1.545424
