19
Iteration:  4354charge 0 multiplicity 1
 C        -0.029013        -0.354376         0.523239
 C         1.383048        -0.130064         0.047302
 C         2.697070        -0.152767         0.839926
 C         3.327293        -1.071501        -0.189241
 C         2.363382        -0.532090        -1.164279
 O         2.007048        -1.320704        -2.246660
 C         2.658647         0.952682        -1.316640
 C         2.245204         1.105640         0.152702
 O         1.785098         2.385068         0.865850
 H        -0.222223        -1.175864         1.259674
 H        -0.537181         0.571630         0.819914
 H        -0.489841        -0.588950        -0.428636
 H         2.919738        -0.322462         1.985159
 H         4.470259        -0.923676        -0.146195
 H         3.038965        -2.017535         0.233622
 H         1.578835        -0.663346        -2.818624
 H         3.815285         1.214238        -1.457262
 H         1.864374         1.426698        -1.927747
 H         0.810027         2.207527         0.966609
