19
Iteration:  3733
 C         0.027623        -0.415065         0.563008
 C         1.435252        -0.288976         0.105950
 C         2.796266        -0.230220         0.838731
 C         3.491789        -0.924824        -0.334635
 C         2.296769        -0.369476        -1.270052
 O         1.875552        -1.218943        -2.386923
 C         2.529198         1.157036        -1.233915
 C         2.229387         1.046071         0.240996
 O         1.687834         2.073940         1.043099
 H        -0.172606         0.554468         1.062557
 H        -0.738522        -0.689547        -0.176084
 H         0.041913        -1.147743         1.370823
 H         2.882907        -0.455691         1.874920
 H         4.543961        -0.672049        -0.599953
 H         3.524925        -2.011023        -0.224153
 H         1.707437        -0.524507        -3.068198
 H         3.475427         1.596420        -1.530630
 H         1.619299         1.644890        -1.673097
 H         2.080320         2.885320         0.659775
