19
Iteration:   949charge 0 multiplicity 1
 C        -0.018439        -0.538362         0.445079
 C         1.288308        -0.106332        -0.049114
 C         2.512417        -0.110572         0.882556
 C         3.445874        -0.990317        -0.051837
 C         2.419123        -0.498595        -1.180202
 O         2.067085        -1.347818        -2.315270
 C         2.692176         1.107791        -1.329969
 C         2.043089         1.222497         0.049301
 O         1.800576         2.320802         0.943787
 H        -0.263179         0.077436         1.318428
 H        -0.909006        -0.365768        -0.252122
 H        -0.118957        -1.605109         0.815529
 H         2.741841        -0.201987         1.967695
 H         4.485203        -0.803505        -0.233042
 H         3.059472        -2.020878         0.199554
 H         1.999735        -2.256565        -1.990228
 H         3.686784         1.568422        -1.381582
 H         2.067089         1.387747        -2.227749
 H         2.435503         2.198481         1.637666
