19
Iteration:  1270
 C        -0.075952        -0.528286         0.504165
 C         1.302050        -0.126844         0.113530
 C         2.678120        -0.055240         0.822664
 C         3.409258        -0.930237        -0.155081
 C         2.325264        -0.565217        -1.123961
 O         2.114230        -1.414242        -2.243283
 C         2.632216         1.066730        -1.354560
 C         2.018634         1.194602         0.108627
 O         1.893157         2.326262         0.901944
 H        -0.418593        -0.064843         1.486049
 H        -0.882840        -0.118656        -0.276177
 H        -0.261414        -1.591071         0.573114
 H         2.750143        -0.112936         1.926795
 H         4.365432        -0.674887        -0.588533
 H         3.412989        -2.099094        -0.032698
 H         2.623171        -1.127715        -2.971240
 H         3.695979         1.344503        -1.663359
 H         1.828856         1.422947        -2.065568
 H         0.960549         2.332375         1.204986
