19
Iteration:  1269
 C        -0.072614        -0.515523         0.505479
 C         1.289723        -0.131939         0.112791
 C         2.681492        -0.059778         0.826943
 C         3.411017        -0.935181        -0.150029
 C         2.336467        -0.556016        -1.128746
 O         2.114968        -1.420240        -2.243468
 C         2.626994         1.075299        -1.349104
 C         2.013538         1.187491         0.115066
 O         1.892012         2.324578         0.893103
 H        -0.406856        -0.082481         1.467472
 H        -0.841227        -0.132506        -0.282877
 H        -0.291135        -1.592378         0.558472
 H         2.772005        -0.108868         1.931774
 H         4.361360        -0.678069        -0.613108
 H         3.436585        -2.090417        -0.034113
 H         2.607284        -1.113185        -2.974112
 H         3.674775         1.318255        -1.684012
 H         1.811105         1.458759        -2.067654
 H         0.992209         2.348054         1.232030
