19
Iteration:   995charge 0 multiplicity 1
 C        -0.131107        -0.310927         0.290087
 C         1.387221        -0.198427         0.252566
 C         2.751114        -0.295656         0.905320
 C         3.501385        -1.049904        -0.130982
 C         2.372158        -0.507187        -1.113937
 O         2.148904        -1.157940        -2.274224
 C         2.438904         0.974963        -1.238769
 C         2.173286         1.073078         0.221600
 O         1.673776         2.342170         0.736133
 H        -0.731575         0.244317         1.015103
 H        -0.615642        -0.011685        -0.780638
 H        -0.393858        -1.358246         0.486870
 H         3.054004        -0.304831         1.964892
 H         4.401890        -0.509032        -0.147686
 H         3.407564        -2.214365         0.015903
 H         2.155365        -2.077331        -2.171570
 H         3.407828         1.245572        -1.744708
 H         1.499705         1.407519        -1.767405
 H         2.397511         2.971612         0.622409
