19
Iteration:  1482
 C         0.021530        -0.533648         0.520907
 C         1.422941        -0.120288         0.110414
 C         2.803260        -0.092403         0.931204
 C         3.439482        -0.966203        -0.120157
 C         2.360625        -0.527007        -1.123511
 O         1.963249        -1.318352        -2.252636
 C         2.541241         0.996709        -1.421753
 C         2.175368         1.178350         0.137485
 O         1.587628         2.227249         0.790922
 H        -0.184127         0.055647         1.449727
 H        -0.860355        -0.219229        -0.096191
 H         0.042657        -1.531181         0.662002
 H         3.054119         0.075089         1.994302
 H         4.521925        -0.750303        -0.346392
 H         3.230766        -1.992173         0.116915
 H         2.520271        -0.834577        -2.827382
 H         3.536501         1.399637        -1.690559
 H         1.749653         1.512875        -1.881607
 H         2.050756         3.074324         0.702849
