19
Iteration:  2361charge 0 multiplicity 1
 C         0.096574        -0.716749         0.722086
 C         1.390119        -0.165867         0.144763
 C         2.657649        -0.208616         0.883482
 C         3.495180        -0.942737        -0.236288
 C         2.375591        -0.388226        -1.226659
 O         2.079703        -1.344142        -2.273561
 C         2.455012         1.136848        -1.286743
 C         2.099841         1.166977         0.129843
 O         1.652034         2.367678         0.673646
 H        -0.309071         0.075667         1.447792
 H        -0.482124        -1.002116        -0.133919
 H         0.349768        -1.446739         1.474508
 H         2.800559        -0.283113         1.962165
 H         4.465689        -0.423166        -0.338537
 H         3.490151        -2.045204        -0.322587
 H         1.559414        -0.886485        -2.945540
 H         3.439130         1.528631        -1.605479
 H         1.554847         1.500100        -1.840161
 H         2.240388         2.594862         1.436426
