19
Iteration:  4376
 C        -0.036481        -0.364804         0.479018
 C         1.442417        -0.104648         0.102669
 C         2.697597        -0.173084         0.922071
 C         3.396990        -1.085391        -0.094148
 C         2.292924        -0.497512        -1.127715
 O         1.973971        -1.264067        -2.256557
 C         2.723422         1.039038        -1.298961
 C         2.209699         1.144563         0.038385
 O         1.779026         2.222393         0.803962
 H        -0.211269        -1.406866         0.907522
 H        -0.304486         0.330054         1.317140
 H        -0.735060        -0.220438        -0.375224
 H         2.667591        -0.134841         2.135990
 H         4.493196        -0.927776        -0.511856
 H         3.179876        -2.157504         0.038454
 H         1.062596        -1.049868        -2.565740
 H         3.894332         1.273533        -1.407593
 H         1.878507         1.386733        -1.901090
 H         0.979916         2.642565         0.459451
