19
Iteration:  4547
 C        -0.036224        -0.430224         0.498449
 C         1.391416        -0.152965         0.097776
 C         2.665972        -0.090569         0.934866
 C         3.377452        -1.029166        -0.130408
 C         2.322713        -0.483759        -1.120259
 O         1.924994        -1.257037        -2.302388
 C         2.709595         0.951555        -1.355047
 C         2.227945         1.152842         0.165063
 O         1.780202         2.276715         0.803091
 H        -0.738867         0.062852        -0.135329
 H        -0.429870        -1.428409         0.701121
 H        -0.053164         0.030767         1.481105
 H         2.759397         0.269215         2.087064
 H         4.438222        -0.814866        -0.429058
 H         3.206217        -2.109622         0.200736
 H         2.394099        -2.108745        -2.375037
 H         3.782961         1.055106        -1.663934
 H         1.951641         1.433402        -2.179458
 H         1.160041         2.854004         0.327476
