19
Iteration:   718charge 0 multiplicity 1
 C         0.100756        -0.627265         0.389878
 C         1.291839        -0.056414        -0.085754
 C         2.509244        -0.002305         0.883506
 C         3.235503        -1.061251        -0.038513
 C         2.361571        -0.570506        -1.133513
 O         2.138506        -1.171259        -2.335021
 C         2.733593         0.929397        -1.282136
 C         2.115677         1.215011         0.091759
 O         1.796034         2.293563         0.986016
 H         0.075625         0.017353         1.297864
 H        -0.724688        -0.233806        -0.278964
 H         0.092321        -1.673319         0.676471
 H         2.413385         0.152540         1.971497
 H         4.308435        -1.128753        -0.098538
 H         2.925443        -2.114849         0.242169
 H         1.779957        -2.080506        -2.169740
 H         3.834384         1.250906        -1.345794
 H         2.171816         1.354210        -2.099765
 H         1.655697         3.155841         0.594156
