19
Iteration:   512
 C        -0.093513        -0.537228         0.323160
 C         1.348183        -0.164375         0.053261
 C         2.512218        -0.154448         0.942013
 C         3.248560        -1.047532        -0.029965
 C         2.337106        -0.449405        -1.093830
 O         2.147432        -1.197902        -2.285822
 C         2.723966         1.048713        -1.234788
 C         2.060325         1.089764         0.155809
 O         1.932090         2.407599         0.686941
 H        -0.498408        -0.104878         1.242375
 H        -0.916093        -0.247252        -0.485187
 H        -0.282427        -1.586395         0.513200
 H         2.419926        -0.265688         2.003576
 H         4.342198        -1.041686        -0.063297
 H         2.809318        -2.115460         0.087132
 H         2.930546        -1.848850        -2.318960
 H         3.854831         1.150067        -1.262511
 H         2.265088         1.529144        -2.083987
 H         1.824371         2.334076         1.662588
