19
Iteration:   196charge 0 multiplicity 1
 C        -0.183895        -0.369220         0.170104
 C         1.291885        -0.152069         0.056235
 C         2.577489        -0.159947         1.041311
 C         3.322921        -0.953380         0.009298
 C         2.378128        -0.528568        -1.063517
 O         2.270940        -1.210415        -2.254926
 C         2.571275         0.946798        -1.238092
 C         2.094354         1.035511         0.172809
 O         1.915973         2.326761         0.656458
 H        -0.523653         0.353079         0.879260
 H        -0.666198        -0.354549        -0.846813
 H        -0.583153        -1.481721         0.578456
 H         2.746241        -0.077360         2.142681
 H         4.362488        -0.643359        -0.089113
 H         3.297052        -2.134498         0.132744
 H         1.800880        -2.036596        -2.065052
 H         3.544483         1.440857        -1.475020
 H         1.755658         1.316370        -1.860275
 H         2.320028         2.501848         1.504383
