19
Iteration:  3356charge 0 multiplicity 1
 C         0.135086        -0.667802         0.591871
 C         1.410050        -0.237869         0.037546
 C         2.819134        -0.195898         0.759672
 C         3.493544        -0.848432        -0.343888
 C         2.300244        -0.412581        -1.229256
 O         1.831927        -1.102554        -2.329299
 C         2.365206         1.104142        -1.310161
 C         2.129722         1.102713         0.239505
 O         1.829070         2.183281         1.044037
 H         0.295930        -0.935980         1.675407
 H        -0.621816         0.130183         0.374131
 H        -0.308607        -1.608691         0.144919
 H         3.073651        -0.190928         1.856601
 H         4.455495        -0.485644        -0.688666
 H         3.692945        -1.934448        -0.103284
 H         2.604824        -1.016215        -2.964513
 H         3.320156         1.670550        -1.563575
 H         1.476149         1.498649        -1.826585
 H         1.253660         2.022300         1.825670
