19
Iteration:  2783
 C        -0.012217        -0.658777         0.581331
 C         1.348939        -0.203321         0.143871
 C         2.817793        -0.088739         0.780585
 C         3.528899        -0.802654        -0.243134
 C         2.395706        -0.465638        -1.205123
 O         2.100658        -1.233875        -2.320959
 C         2.261822         1.047405        -1.305491
 C         2.051488         1.134575         0.213139
 O         1.793757         2.259598         0.903513
 H         0.071438        -1.759086         0.648159
 H        -0.288377        -0.313358         1.608780
 H        -0.692845        -0.503993        -0.294160
 H         2.909607        -0.069566         1.892706
 H         4.476705        -0.363420        -0.646223
 H         3.392896        -1.883642        -0.156173
 H         1.764688        -2.135518        -2.106103
 H         2.961648         1.755194        -1.879492
 H         1.285396         1.375356        -1.715279
 H         2.760893         2.507927         0.855875
