19
Iteration:  3631charge 0 multiplicity 1
 C         0.097825        -0.842341         0.484350
 C         1.399553        -0.106987         0.098535
 C         2.824545        -0.127986         0.840591
 C         3.444945        -0.929761        -0.308572
 C         2.295844        -0.429528        -1.156351
 O         1.707744        -1.111979        -2.314863
 C         2.578111         1.105636        -1.200961
 C         2.140810         1.090117         0.222022
 O         1.807673         2.275511         0.912099
 H        -0.055920        -1.246157         1.518659
 H        -0.746444        -0.247267         0.175083
 H         0.050475        -1.704074        -0.186703
 H         3.038003        -0.246421         1.932488
 H         4.571081        -0.777417        -0.687797
 H         3.298120        -2.088148        -0.199417
 H         1.820139        -0.527945        -3.122336
 H         3.613262         1.541468        -1.383417
 H         1.863206         1.724912        -1.772534
 H         2.568316         2.420781         1.528981
