19
Iteration:  3561charge 0 multiplicity 1
 C        -0.034705        -0.717387         0.625896
 C         1.416849        -0.369678         0.103276
 C         2.743175        -0.154712         0.841921
 C         3.446609        -0.805567        -0.418220
 C         2.259044        -0.400568        -1.296980
 O         2.003499        -1.151588        -2.403539
 C         2.421962         1.127341        -1.214492
 C         2.198981         1.109656         0.316419
 O         1.943750         2.303074         0.960073
 H        -0.153819        -0.826895         1.699618
 H        -0.672208         0.109008         0.191799
 H        -0.481153        -1.649557         0.158553
 H         2.934554        -0.430532         1.886349
 H         4.443691        -0.457208        -0.647717
 H         3.542649        -1.906714        -0.319392
 H         1.011520        -1.317356        -2.490280
 H         3.281301         1.483279        -1.913696
 H         1.571479         1.673332        -1.697659
 H         1.616563         2.006856         1.841211
