19
Iteration:  3512charge 0 multiplicity 1
 C         0.059268        -0.662166         0.593432
 C         1.435438        -0.275534         0.118361
 C         2.859888        -0.143035         0.853507
 C         3.477170        -0.891612        -0.346905
 C         2.292788        -0.407257        -1.261283
 O         1.878820        -1.074771        -2.359522
 C         2.338376         1.149329        -1.348816
 C         2.155579         1.059657         0.234268
 O         1.842981         2.195727         1.031318
 H        -0.040731         0.021126         1.505493
 H        -0.749327        -0.467477        -0.114108
 H        -0.043799        -1.693050         0.929825
 H         3.109962        -0.323595         1.905235
 H         4.505005        -0.748836        -0.770588
 H         3.044665        -1.898136        -0.319918
 H         2.613805        -1.195268        -2.957622
 H         3.061020         1.758007        -1.861788
 H         1.469533         1.468617        -1.955101
 H         1.717917         1.767278         1.891149
