19
Iteration:  3563charge 0 multiplicity 1
 C        -0.018820        -0.720533         0.624000
 C         1.389076        -0.368180         0.096508
 C         2.741002        -0.171722         0.822792
 C         3.444397        -0.808909        -0.395131
 C         2.258240        -0.406983        -1.280956
 O         1.989210        -1.141677        -2.394544
 C         2.422297         1.151308        -1.217261
 C         2.218941         1.119240         0.301732
 O         1.933360         2.304335         0.956886
 H        -0.122266        -0.880026         1.687123
 H        -0.623621         0.092723         0.190503
 H        -0.452668        -1.637953         0.139799
 H         2.954573        -0.412257         1.833824
 H         4.547460        -0.509790        -0.652625
 H         3.553509        -1.970840        -0.317585
 H         1.048743        -1.430832        -2.449420
 H         3.336432         1.536184        -1.854844
 H         1.577520         1.698982        -1.687446
 H         1.628253         1.959496         1.800382
