19
Iteration:  3431
 C         0.142070        -0.817331         0.448077
 C         1.452363        -0.186735         0.199287
 C         2.883812        -0.170510         0.818641
 C         3.457337        -0.984480        -0.237817
 C         2.300294        -0.456933        -1.223697
 O         1.825646        -1.004397        -2.513156
 C         2.362524         1.143730        -1.276155
 C         2.140928         1.127325         0.289982
 O         1.869596         2.245692         1.091715
 H        -0.487656        -0.216573         1.050644
 H        -0.483384        -1.092150        -0.388784
 H         0.389070        -1.689116         1.082789
 H         3.068527        -0.332535         1.907279
 H         4.502700        -0.656582        -0.636428
 H         3.584216        -2.108255        -0.152347
 H         0.885953        -1.040253        -2.307760
 H         3.145805         1.690373        -1.705911
 H         1.425927         1.360960        -1.671384
 H         1.638751         2.939752         0.460180
