19
Iteration:  2147
 C         0.009980        -0.800493         0.615120
 C         1.372767        -0.232784         0.145976
 C         2.722357        -0.009882         0.833964
 C         3.595118        -0.760981        -0.189634
 C         2.393711        -0.443389        -1.109701
 O         1.986073        -1.243483        -2.196793
 C         2.412474         0.965458        -1.388973
 C         2.070881         1.106971         0.060946
 O         1.742369         2.337327         0.771237
 H        -0.108609        -0.664783         1.652633
 H        -0.887852        -0.554044         0.014196
 H         0.083742        -1.917956         0.425094
 H         2.752565        -0.078922         1.961741
 H         4.584212        -0.431153        -0.544810
 H         3.714513        -1.889758         0.121989
 H         1.569791        -0.669620        -2.796698
 H         3.250576         1.329788        -1.972804
 H         1.569787         1.444754        -1.872444
 H         2.545065         2.604102         1.317890
