19
Iteration:  2976
 C         0.102794        -0.657372         0.590878
 C         1.466887        -0.235236         0.198365
 C         2.940875        -0.106350         0.805870
 C         3.521253        -0.934676        -0.382628
 C         2.296621        -0.419837        -1.190235
 O         1.884769        -1.131291        -2.336113
 C         2.428285         1.088393        -1.223610
 C         2.147209         1.123402         0.226537
 O         1.559337         2.202993         0.884570
 H        -0.468095         0.245309         0.941215
 H        -0.509612        -1.036967        -0.289337
 H         0.081877        -1.544081         1.229807
 H         3.152255        -0.162865         1.898910
 H         4.450262        -0.596787        -0.776815
 H         3.599587        -2.016497        -0.245081
 H         2.173546        -2.093452        -2.263512
 H         3.407509         1.586858        -1.480629
 H         1.656961         1.782275        -1.656923
 H         2.150665         2.961816         0.676734
