19
Iteration:  2743
 C         0.082306        -0.546384         0.756918
 C         1.398719        -0.246804         0.133508
 C         2.781737        -0.042000         0.826460
 C         3.476194        -0.822220        -0.298640
 C         2.295848        -0.499701        -1.223826
 O         2.051027        -1.252670        -2.403879
 C         2.443287         1.015882        -1.345465
 C         2.078108         1.085949         0.147995
 O         1.640329         2.296774         0.870947
 H        -0.360254        -1.477423         0.242816
 H         0.046186        -0.902055         1.805984
 H        -0.680038         0.295896         0.639181
 H         2.910328        -0.288460         1.904608
 H         4.489943        -0.494476        -0.616419
 H         3.750153        -1.842800         0.029740
 H         2.838270        -1.822739        -2.512942
 H         3.389161         1.487757        -1.736167
 H         1.499447         1.288203        -1.845421
 H         2.030587         2.290260         1.751274
