19
Iteration:  3926charge 0 multiplicity 1
 C        -0.033212        -0.368677         0.552533
 C         1.479992        -0.203405         0.063147
 C         2.755748        -0.198343         0.851976
 C         3.461927        -1.007125        -0.347974
 C         2.321495        -0.478327        -1.233279
 O         1.819556        -1.169584        -2.303889
 C         2.693909         1.103254        -1.254345
 C         2.235845         1.084670         0.206209
 O         1.594179         2.133849         1.018972
 H        -0.211529        -0.595471         1.623865
 H        -0.572707         0.598509         0.626392
 H        -0.601580        -0.922920        -0.203845
 H         2.936105        -0.552256         1.841904
 H         4.445559        -0.778213        -0.516304
 H         3.492449        -2.080850        -0.152350
 H         2.565573        -1.155063        -2.974628
 H         3.667189         1.318585        -1.617983
 H         1.936176         1.432639        -1.937344
 H         2.379424         2.687531         0.926986
