19
Iteration:  1200
 C        -0.111906        -0.416720         0.373183
 C         1.429643        -0.206319         0.123034
 C         2.777083        -0.010352         0.916419
 C         3.425536        -1.006138        -0.132744
 C         2.394151        -0.510517        -1.099511
 O         2.017337        -1.335046        -2.315581
 C         2.700671         1.063288        -1.310562
 C         2.117669         1.143506         0.165950
 O         1.631642         2.216158         0.833267
 H        -0.541640         0.116942         1.197506
 H        -0.519301         0.074507        -0.516373
 H        -0.485084        -1.518342         0.297330
 H         2.883186        -0.080252         1.984990
 H         4.519921        -0.805990        -0.430011
 H         3.377506        -1.950586         0.353678
 H         1.110148        -1.567829        -2.127546
 H         3.759670         1.331156        -1.456268
 H         1.930284         1.488342        -2.046205
 H         2.446792         2.698533         1.139500
