19
Iteration:  1515
 C         0.063822        -0.746530         0.456992
 C         1.390936        -0.158753         0.069652
 C         2.681869        -0.047355         0.831385
 C         3.498407        -0.888470        -0.135647
 C         2.323972        -0.465851        -1.175855
 O         1.845328        -1.341395        -2.182295
 C         2.627866         1.105024        -1.300116
 C         2.067352         1.158868         0.074287
 O         1.718549         2.360571         0.817149
 H        -0.171673        -0.112347         1.382106
 H        -0.791982        -0.574773        -0.259339
 H         0.013279        -1.731504         0.799807
 H         2.864305         0.006479         1.901628
 H         4.553933        -0.727959        -0.451253
 H         3.409543        -1.958730         0.033685
 H         2.460356        -2.135016        -2.039113
 H         3.699519         1.433772        -1.222776
 H         2.178412         1.767070        -1.989000
 H         2.553529         2.817334         0.943796
