19
Iteration:  2150
 C        -0.000116        -0.816939         0.633634
 C         1.354284        -0.249815         0.162252
 C         2.686405         0.020886         0.832403
 C         3.611669        -0.762073        -0.197829
 C         2.374739        -0.432517        -1.128708
 O         1.992832        -1.252817        -2.202739
 C         2.416387         1.003984        -1.384712
 C         2.087690         1.084451         0.063136
 O         1.770107         2.309033         0.762002
 H        -0.210395        -0.771909         1.731263
 H        -0.864899        -0.476795         0.000021
 H         0.053293        -1.939249         0.427047
 H         2.749809         0.012518         1.937634
 H         4.606662        -0.424546        -0.586103
 H         3.696730        -1.751740         0.289436
 H         1.605835        -0.596050        -2.859119
 H         3.365104         1.301768        -1.908184
 H         1.537723         1.433556        -1.854281
 H         2.537217         2.707162         1.221350
