19
Iteration:  2441charge 0 multiplicity 1
 C         0.055025        -0.755414         0.399014
 C         1.380113        -0.200930         0.021383
 C         2.735493        -0.056591         0.892397
 C         3.581580        -0.780706        -0.198256
 C         2.336839        -0.487465        -1.122629
 O         1.985586        -1.388937        -2.164369
 C         2.412977         1.103190        -1.251073
 C         2.089410         1.121577         0.218703
 O         1.760660         2.410962         0.705570
 H         0.103009        -0.979098         1.438917
 H        -0.837189        -0.101822         0.351722
 H        -0.017488        -1.645493        -0.239377
 H         2.704754        -0.088645         2.001018
 H         4.534960        -0.520929        -0.609222
 H         3.714825        -1.858279         0.029882
 H         1.027005        -1.550269        -1.990214
 H         3.371266         1.424952        -1.576035
 H         1.549760         1.499640        -1.787941
 H         2.471702         2.717203         1.312958
