19
Iteration:   933charge 0 multiplicity 1
 C         0.014251        -0.626629         0.470290
 C         1.298762        -0.080504        -0.059625
 C         2.566332        -0.081532         0.837179
 C         3.281535        -1.069465        -0.131665
 C         2.378751        -0.440579        -1.172051
 O         2.098234        -1.246959        -2.205787
 C         2.745686         1.035215        -1.335471
 C         2.156206         1.209270         0.140417
 O         1.749201         2.346976         0.851968
 H        -0.228932        -0.209512         1.500649
 H        -0.805965        -0.573562        -0.211334
 H         0.217141        -1.676895         0.707718
 H         2.109879        -0.028095         1.811120
 H         4.399619        -0.840926        -0.253736
 H         3.149668        -2.132019         0.020497
 H         1.884455        -2.077130        -1.851815
 H         3.781343         1.248369        -1.676408
 H         2.158116         1.636394        -2.003693
 H         2.137452         2.287421         1.730204
