19
Iteration:  1779charge 0 multiplicity 1
 C         0.074213        -0.823848         0.617854
 C         1.406737        -0.185550         0.195970
 C         2.786598        -0.149426         0.858467
 C         3.492685        -0.793137        -0.234800
 C         2.289691        -0.390696        -1.110465
 O         1.991608        -1.328453        -2.148908
 C         2.500822         1.095460        -1.360841
 C         2.057010         1.151671         0.106907
 O         1.659180         2.348294         0.664440
 H        -0.238602        -0.507946         1.640443
 H        -0.674551        -0.442036        -0.126226
 H         0.146581        -1.869588         0.714250
 H         3.089747         0.053956         1.893872
 H         4.541473        -0.534507        -0.509883
 H         3.381068        -1.857306        -0.182379
 H         1.851036        -0.947807        -3.059560
 H         3.569114         1.295814        -1.469673
 H         1.824035         1.556753        -2.048878
 H         2.453471         2.651574         1.134084
