19
Iteration:  3485
 C         0.153076        -0.718696         0.619255
 C         1.442794        -0.132841         0.166774
 C         2.784081        -0.181321         0.722535
 C         3.541488        -0.956320        -0.430020
 C         2.258698        -0.439871        -1.247825
 O         1.750408        -1.079636        -2.379554
 C         2.585754         1.223962        -1.220944
 C         2.162649         1.125155         0.240840
 O         1.666086         2.178846         1.007088
 H        -0.421856        -0.058378         1.223313
 H        -0.446999        -0.902368        -0.293417
 H         0.337003        -1.694974         1.110688
 H         2.845782        -0.243153         1.831253
 H         4.506590        -0.558701        -0.893782
 H         3.383297        -2.071578        -0.338093
 H         2.052199        -1.986408        -2.341242
 H         3.609893         1.639957        -1.427275
 H         1.940386         1.779297        -1.901853
 H         2.033634         2.049540         1.889646
