19
Iteration:  3580charge 0 multiplicity 1
 C         0.060820        -0.721397         0.522801
 C         1.447315        -0.151703         0.120614
 C         2.754277        -0.232767         0.778867
 C         3.495443        -0.984250        -0.338791
 C         2.269235        -0.374560        -1.186347
 O         1.885057        -1.068252        -2.363840
 C         2.458180         1.219157        -1.261337
 C         2.128393         1.075953         0.195591
 O         1.871239         2.228647         0.942352
 H         0.248144        -0.979889         1.596603
 H        -0.871008        -0.136835         0.591974
 H        -0.159305        -1.678106         0.050537
 H         2.908342        -0.192200         1.896666
 H         4.425646        -0.558450        -0.592624
 H         3.410710        -2.021041        -0.206580
 H         1.483270        -1.883514        -1.942992
 H         3.366811         1.696152        -1.532321
 H         1.669060         1.671303        -1.881099
 H         1.716558         2.132656         1.886214
