19
Iteration:  3347
 C         0.119640        -0.655731         0.590241
 C         1.485249        -0.235862         0.148376
 C         2.815914        -0.143960         0.767270
 C         3.546880        -0.923548        -0.377481
 C         2.312043        -0.395686        -1.200856
 O         1.825297        -1.061274        -2.347071
 C         2.376073         1.146766        -1.225796
 C         2.107142         1.053291         0.215438
 O         1.784800         2.169125         0.964652
 H         0.121191        -0.983799         1.720045
 H        -0.722927         0.125523         0.554079
 H        -0.252943        -1.545217        -0.018971
 H         3.137511        -0.107514         1.814841
 H         4.509082        -0.608186        -0.694172
 H         3.317448        -1.995442        -0.336777
 H         2.607033        -1.178430        -2.964337
 H         3.319819         1.588533        -1.782410
 H         1.453153         1.544743        -1.807826
 H         1.250714         1.867150         1.739420
