19
Iteration:   103
 C        -0.046066        -0.392120         0.272269
 C         1.361550        -0.088233        -0.006212
 C         2.522585        -0.172268         0.958860
 C         3.349411        -1.107849         0.047609
 C         2.381551        -0.580318        -1.082137
 O         2.038723        -1.263864        -2.245445
 C         2.759510         0.954756        -1.141930
 C         2.171712         1.145101         0.179046
 O         1.673345         2.396347         0.599004
 H        -0.228425        -0.097251         1.374532
 H        -0.615412         0.179009        -0.498362
 H        -0.242776        -1.441478         0.177201
 H         2.411314        -0.269882         2.057273
 H         4.472354        -0.873512        -0.073428
 H         3.253737        -2.158951         0.195263
 H         2.908571        -1.487748        -2.668811
 H         3.837942         1.215240        -1.217292
 H         2.157399         1.525893        -1.910432
 H         2.296966         2.752204         1.281153
