19
Iteration:  2702
 C         0.174456        -0.680119         0.633077
 C         1.502549        -0.269648         0.153519
 C         2.795497        -0.068181         0.880572
 C         3.480382        -0.859469        -0.269337
 C         2.354824        -0.397097        -1.174858
 O         1.817764        -1.217445        -2.202161
 C         2.588978         1.131007        -1.344704
 C         2.122805         1.121902         0.128008
 O         1.502752         2.212819         0.718823
 H        -0.490254        -0.951536        -0.158093
 H         0.239723        -1.365725         1.445682
 H        -0.084881         0.161492         1.233551
 H         2.897334        -0.316760         1.932956
 H         4.485066        -0.642098        -0.687612
 H         3.341938        -1.937183        -0.023781
 H         2.574408        -1.364607        -2.859107
 H         3.586531         1.382255        -1.638212
 H         1.935956         1.542890        -2.104829
 H         1.793818         2.397690         1.623715
