19
Iteration:  2249
 C        -0.001593        -0.669875         0.555378
 C         1.370320        -0.220859         0.076596
 C         2.809630         0.015535         0.831329
 C         3.705833        -0.821467        -0.284987
 C         2.393117        -0.588895        -1.124600
 O         1.922387        -1.281311        -2.258800
 C         2.577408         1.044801        -1.346560
 C         2.096518         1.102321         0.145217
 O         1.523488         2.316866         0.862540
 H        -0.339396         0.003018         1.430711
 H        -0.849771        -0.559503        -0.113220
 H         0.083476        -1.581420         1.136505
 H         3.173811         0.054534         1.832613
 H         4.616490        -0.404910        -0.800590
 H         3.902375        -1.785666         0.153459
 H         0.908713        -1.241393        -2.396574
 H         3.581703         1.338741        -1.521290
 H         1.776818         1.302836        -1.950457
 H         2.248918         2.534564         1.444834
