19
Iteration:  2438
 C         0.043071        -0.771418         0.402895
 C         1.388959        -0.227838         0.014171
 C         2.727216        -0.032461         0.905294
 C         3.572235        -0.778682        -0.192727
 C         2.378583        -0.486051        -1.137666
 O         1.951355        -1.377832        -2.170775
 C         2.430227         1.079076        -1.278643
 C         2.104783         1.127867         0.210820
 O         1.757383         2.413671         0.716697
 H         0.170235        -0.999448         1.514746
 H        -0.774762        -0.053498         0.315906
 H        -0.074418        -1.696162        -0.136238
 H         2.580183        -0.044873         1.941215
 H         4.569303        -0.508459        -0.568639
 H         3.717048        -1.843292         0.087910
 H         1.041043        -1.506252        -1.992934
 H         3.430166         1.486864        -1.503657
 H         1.511462         1.504848        -1.765704
 H         2.408572         2.733501         1.385909
