19
Iteration:  4069
 C        -0.052800        -0.604691         0.344373
 C         1.413655        -0.201317         0.150643
 C         2.739861        -0.197326         0.915496
 C         3.313067        -1.099954        -0.213312
 C         2.305951        -0.397659        -1.098469
 O         1.848134        -1.128284        -2.227339
 C         2.718888         1.058513        -1.321718
 C         2.205721         1.135769         0.172830
 O         1.819777         2.320268         0.866848
 H        -0.336052        -1.547464        -0.266936
 H        -0.043305        -1.082454         1.390661
 H        -0.850131         0.164345         0.264462
 H         2.819440        -0.412754         2.045381
 H         4.486249        -1.063761        -0.424222
 H         3.100449        -2.127589         0.167282
 H         1.684596        -0.443053        -2.921790
 H         3.812635         1.131870        -1.450735
 H         2.064934         1.557998        -2.089861
 H         2.496793         3.005213         0.772490
