19
Iteration:  1327charge 0 multiplicity 1
 C         0.089171        -0.783202         0.443556
 C         1.393646        -0.169498         0.040301
 C         2.656301        -0.119748         0.868122
 C         3.436675        -1.066770        -0.085114
 C         2.377206        -0.471001        -1.120114
 O         1.842953        -1.149071        -2.167152
 C         2.656133         1.079548        -1.233081
 C         2.100868         1.167276         0.204641
 O         1.746439         2.454877         0.692209
 H        -0.324227        -0.151659         1.324749
 H        -0.657892        -0.670723        -0.452141
 H         0.145078        -1.810845         0.759767
 H         2.784564        -0.065180         1.928570
 H         4.514321        -0.995727        -0.296955
 H         3.097322        -2.140529         0.051879
 H         2.317235        -1.994812        -2.502714
 H         3.756383         1.236993        -1.531652
 H         2.046424         1.629260        -1.908830
 H         2.020372         3.014841        -0.076646
