19
Iteration:   505
 C        -0.085064        -0.562575         0.327704
 C         1.247721        -0.164639        -0.028690
 C         2.460089        -0.157778         0.973871
 C         3.236459        -1.047344        -0.066654
 C         2.328725        -0.453071        -1.090633
 O         2.135232        -1.210707        -2.208209
 C         2.801712         1.085413        -1.257115
 C         2.135358         1.137218         0.121760
 O         1.914206         2.388871         0.711050
 H        -0.455176        -0.210601         1.307818
 H        -0.747212        -0.311447        -0.408250
 H        -0.098903        -1.731330         0.445857
 H         2.304663        -0.217030         2.077144
 H         4.314466        -1.048478        -0.302237
 H         3.005540        -2.056598         0.148660
 H         2.925284        -1.822138        -2.275599
 H         3.860815         1.102720        -1.374845
 H         2.168548         1.652830        -1.978085
 H         2.089986         2.329177         1.653408
