19
Iteration:   155charge 0 multiplicity 1
 C        -0.113035        -0.297023         0.424534
 C         1.268495        -0.060950        -0.032292
 C         2.552484        -0.088493         0.903131
 C         3.216587        -1.122958         0.026077
 C         2.428837        -0.577126        -1.127192
 O         2.375892        -1.256295        -2.369253
 C         2.773928         0.929544        -1.255632
 C         2.067059         1.153541         0.129857
 O         1.630915         2.289163         0.815615
 H        -0.144561         0.457090         1.224955
 H        -0.870836        -0.028741        -0.238025
 H        -0.127861        -1.229596         0.918570
 H         2.712536        -0.062008         2.015507
 H         4.284850        -1.228839        -0.177877
 H         2.873498        -2.106945         0.271449
 H         2.041147        -2.132681        -2.218793
 H         3.813494         1.086317        -1.437427
 H         2.136277         1.299763        -2.095535
 H         2.499747         2.755697         0.876095
