19
Iteration:  1559charge 0 multiplicity 1
 C         0.022873        -0.815875         0.397115
 C         1.418133        -0.212848         0.158562
 C         2.735607        -0.011140         0.895126
 C         3.452434        -0.932916        -0.102565
 C         2.265623        -0.515705        -1.027704
 O         2.051550        -1.245152        -2.248555
 C         2.409204         1.074543        -1.352700
 C         2.074027         1.200180         0.113510
 O         1.885247         2.450779         0.730892
 H        -0.578328        -0.410297         1.334681
 H        -0.623402        -0.693048        -0.562374
 H         0.109180        -1.886087         0.515544
 H         3.011042         0.196896         1.925938
 H         4.563782        -0.788108        -0.264771
 H         3.335130        -1.969136         0.236368
 H         1.112325        -1.651007        -2.312242
 H         3.307094         1.360417        -1.993716
 H         1.604489         1.226292        -2.057002
 H         2.301132         2.472823         1.592203
