19
Iteration:   912
 C         0.036817        -0.737384         0.424187
 C         1.308089        -0.042527         0.107022
 C         2.606939        -0.079177         1.016559
 C         3.231533        -1.027008        -0.067724
 C         2.340659        -0.494226        -1.126195
 O         2.050536        -1.155755        -2.398834
 C         2.723382         1.032996        -1.243167
 C         2.170115         1.169842         0.190540
 O         1.761416         2.353345         0.644063
 H        -0.261546        -0.282385         1.426695
 H        -0.639829        -0.481300        -0.327116
 H         0.208039        -1.858605         0.536401
 H         2.870994        -0.061550         2.085177
 H         4.385290        -1.099154        -0.238075
 H         3.089070        -2.029566         0.186719
 H         1.698097        -2.085748        -2.180030
 H         3.792486         1.256861        -1.367181
 H         2.209006         1.603589        -1.983913
 H         2.300281         2.591874         1.419568
