19
Iteration:  4269
 C         0.004181        -0.627976         0.322597
 C         1.329640        -0.053286         0.145362
 C         2.640547        -0.106130         0.914950
 C         3.335594        -1.050325        -0.171650
 C         2.303458        -0.481898        -1.145699
 O         1.864837        -1.240509        -2.161151
 C         2.659416         1.029668        -1.290556
 C         2.121227         1.156728         0.162001
 O         1.987468         2.334709         0.785851
 H        -0.706012        -0.064015         0.949330
 H        -0.503631        -0.578973        -0.676032
 H        -0.063630        -1.673486         0.673441
 H         2.569638        -0.237057         2.083332
 H         4.413152        -0.997024        -0.294968
 H         3.145021        -2.154577         0.083614
 H         2.281405        -0.835226        -2.936514
 H         3.634817         1.266221        -1.530645
 H         2.070858         1.551585        -2.108682
 H         2.449399         2.390282         1.631928
