19
Iteration:  3331
 C         0.038381        -0.706949         0.642531
 C         1.527431        -0.310445         0.294842
 C         3.002209        -0.173400         0.833888
 C         3.464920        -0.979838        -0.423458
 C         2.325630        -0.371079        -1.228505
 O         1.801708        -0.983510        -2.363478
 C         2.434159         1.201313        -1.294282
 C         2.190711         1.086709         0.232360
 O         1.642927         2.201971         0.867222
 H        -0.136750        -1.272266         1.490356
 H        -0.522097         0.173676         0.410925
 H        -0.404520        -1.328192        -0.141639
 H         3.228019        -0.285462         1.901913
 H         4.540585        -0.933900        -0.856923
 H         3.360450        -2.068158        -0.142767
 H         2.554074        -1.532555        -2.731896
 H         3.302852         1.754119        -1.464174
 H         1.648992         1.670868        -1.797068
 H         1.167416         1.952665         1.691700
