19
Iteration:  3788charge 0 multiplicity 1
 C         0.064726        -0.623357         0.495106
 C         1.472887        -0.243973         0.077012
 C         2.782512        -0.187542         0.844966
 C         3.442017        -0.987046        -0.224854
 C         2.255899        -0.379054        -1.261486
 O         1.769872        -1.024992        -2.358826
 C         2.582502         1.084656        -1.321561
 C         2.184313         1.062529         0.191979
 O         1.767430         2.242646         1.027549
 H        -0.453849         0.312209         0.634827
 H        -0.461879        -1.002990        -0.382319
 H         0.043427        -1.417491         1.234392
 H         3.080967        -0.163503         1.873093
 H         4.388787        -0.862337        -0.491345
 H         3.203860        -2.010951         0.010553
 H         2.074790        -1.932151        -2.443328
 H         3.538658         1.562062        -1.571772
 H         1.789460         1.706352        -1.830230
 H         2.430229         2.191905         1.760836
