19
Iteration:  2293charge 0 multiplicity 1
 C         0.003417        -0.597252         0.528796
 C         1.503362        -0.216174         0.107070
 C         2.863598        -0.088141         0.810680
 C         3.489450        -0.877460        -0.282614
 C         2.298194        -0.422516        -1.158479
 O         2.129414        -1.377754        -2.158708
 C         2.319011         1.092872        -1.375189
 C         2.153274         1.192595         0.183083
 O         1.636238         2.212460         0.896317
 H        -0.606870         0.253272         0.894339
 H        -0.443973        -1.026585        -0.350348
 H        -0.025424        -1.249408         1.382829
 H         2.977200         0.065900         1.892192
 H         4.528548        -0.675508        -0.641627
 H         3.260670        -1.924777        -0.305925
 H         1.418477        -0.993462        -2.788585
 H         3.147656         1.580815        -1.877011
 H         1.344882         1.256015        -1.767884
 H         2.250233         2.912999         1.118095
