19
Iteration:   854charge 0 multiplicity 1
 C        -0.054597        -0.592329         0.377177
 C         1.308364        -0.117006         0.135747
 C         2.573754        -0.141293         0.922561
 C         3.444208        -0.905712        -0.045666
 C         2.323831        -0.466454        -1.161434
 O         2.026441        -1.259964        -2.335989
 C         2.675927         1.050069        -1.287660
 C         2.177808         1.125902         0.208183
 O         1.844720         2.275243         0.804617
 H        -0.652335        -0.278667         1.204358
 H        -0.563738        -0.237862        -0.614148
 H        -0.157801        -1.653384         0.280906
 H         2.585617        -0.209291         2.022053
 H         4.492029        -0.582681        -0.068833
 H         3.172075        -1.934793         0.276379
 H         1.902628        -2.136283        -2.020225
 H         3.758123         1.229450        -1.506992
 H         1.976580         1.672373        -1.936202
 H         1.820371         3.022070         0.189835
