19
Iteration:  2214charge 0 multiplicity 1
 C         0.145516        -0.722504         0.612754
 C         1.441048        -0.144953         0.140193
 C         2.776359        -0.047359         0.928003
 C         3.417821        -0.908733        -0.182239
 C         2.341077        -0.432326        -1.222384
 O         2.058607        -1.313785        -2.228921
 C         2.451233         1.156052        -1.401010
 C         2.102451         1.170725         0.135227
 O         1.607001         2.212278         0.766048
 H         0.125306        -0.575269         1.648035
 H        -0.828954        -0.508664         0.157469
 H         0.329666        -1.792540         0.385077
 H         3.080789         0.182293         1.946747
 H         4.490161        -0.915807        -0.429710
 H         3.206386        -1.955772         0.114466
 H         1.143063        -1.114544        -2.630281
 H         3.332112         1.541336        -1.893130
 H         1.673272         1.695433        -1.870737
 H         2.349030         2.785460         0.960640
