19
Iteration:  3827charge 0 multiplicity 1
 C        -0.056260        -0.812156         0.400012
 C         1.271654        -0.180364         0.110096
 C         2.682142        -0.185905         0.775183
 C         3.333893        -0.930495        -0.293250
 C         2.251820        -0.330203        -1.200174
 O         1.911245        -1.184756        -2.240536
 C         2.552478         1.123060        -1.287127
 C         2.139325         1.120489         0.251331
 O         2.046496         2.303261         1.012176
 H        -0.572054        -0.234514         1.228442
 H        -0.709306        -1.056674        -0.460861
 H         0.149891        -1.791710         0.923669
 H         2.956393        -0.205333         1.810899
 H         4.561929        -0.665855        -0.477235
 H         3.424186        -2.076556        -0.263236
 H         2.261915        -0.620551        -2.980376
 H         3.545194         1.390462        -1.748925
 H         1.717270         1.686332        -1.703280
 H         2.891728         2.599349         1.369302
