19
Iteration:  3349charge 0 multiplicity 1
 C         0.126454        -0.655207         0.591104
 C         1.477320        -0.226002         0.116007
 C         2.810091        -0.155973         0.760932
 C         3.532918        -0.908473        -0.362778
 C         2.314434        -0.398175        -1.206308
 O         1.824491        -1.070175        -2.343206
 C         2.370252         1.129000        -1.243050
 C         2.109234         1.057385         0.228565
 O         1.795344         2.168877         0.982800
 H         0.176728        -0.990827         1.685577
 H        -0.707685         0.090598         0.490851
 H        -0.292232        -1.524567         0.047936
 H         3.133413        -0.104883         1.767798
 H         4.507459        -0.559914        -0.716351
 H         3.402535        -1.975848        -0.280052
 H         2.623131        -1.121930        -2.931477
 H         3.288684         1.596161        -1.737387
 H         1.463363         1.548902        -1.827485
 H         1.255101         1.927231         1.764959
