19
Iteration:  1116charge 0 multiplicity 1
 C        -0.128679        -0.666250         0.357697
 C         1.253294        -0.123943         0.301245
 C         2.581043        -0.208754         0.947784
 C         3.407495        -1.078512        -0.080558
 C         2.317773        -0.517800        -1.039335
 O         2.187520        -1.052266        -2.338355
 C         2.522122         0.947491        -1.262158
 C         2.038343         1.208534         0.114811
 O         2.057441         2.452789         0.650494
 H        -0.897069        -0.445922         1.119187
 H        -0.745290        -0.489226        -0.638774
 H         0.024021        -1.680126         0.614445
 H         2.809445        -0.008871         1.978207
 H         4.431939        -0.826253        -0.188882
 H         2.994182        -2.166168        -0.056084
 H         2.368366        -2.045588        -2.371223
 H         3.545179         1.203435        -1.588473
 H         1.973388         1.410021        -2.131067
 H         1.352361         2.500532         1.302851
