19
Iteration:   517
 C        -0.128301        -0.518861         0.314410
 C         1.322222        -0.159392         0.100239
 C         2.564393        -0.155169         0.924132
 C         3.264200        -1.076653         0.012252
 C         2.371158        -0.467714        -1.144125
 O         2.153772        -1.192405        -2.337759
 C         2.682904         0.988279        -1.193685
 C         2.054038         1.130313         0.177078
 O         1.933286         2.406583         0.680234
 H        -0.422002         0.095952         1.207318
 H        -0.737565        -0.216145        -0.448505
 H        -0.313038        -1.637136         0.489294
 H         2.547783        -0.244594         2.031509
 H         4.369319        -1.013904         0.030191
 H         2.858604        -2.039076         0.088964
 H         2.830166        -1.831142        -2.378183
 H         3.712683         1.312404        -1.199343
 H         2.233671         1.479022        -2.094872
 H         1.624362         2.359021         1.609983
