19
Iteration:  4408
 C        -0.097096        -0.466951         0.412661
 C         1.360223        -0.164850         0.047664
 C         2.676605        -0.145534         0.929834
 C         3.442567        -0.999587        -0.153670
 C         2.324934        -0.511721        -1.113919
 O         1.967750        -1.328193        -2.266534
 C         2.669517         0.955022        -1.272935
 C         2.145463         1.148852         0.081555
 O         1.895164         2.376050         0.891944
 H        -0.426465        -1.505917         0.074850
 H        -0.183167        -0.349579         1.534497
 H        -0.751166         0.344454         0.025503
 H         2.660253        -0.108857         2.109050
 H         4.532719        -0.750060        -0.381268
 H         3.334428        -2.037062         0.095780
 H         1.012157        -1.409517        -2.259082
 H         3.708878         1.326609        -1.538911
 H         2.041654         1.404700        -1.987736
 H         1.666277         3.102842         0.260151
