19
Iteration:  4448
 C        -0.123181        -0.647087         0.313197
 C         1.308010        -0.127819         0.070473
 C         2.683303        -0.042009         0.900210
 C         3.315292        -0.941115        -0.070637
 C         2.311602        -0.484158        -1.166271
 O         2.046874        -1.354179        -2.153531
 C         2.567885         0.998974        -1.400975
 C         2.141490         1.195075         0.191420
 O         2.145329         2.342302         0.858667
 H        -0.562290        -1.395279        -0.322997
 H        -0.378000        -0.966176         1.345815
 H        -0.632159         0.346201         0.358306
 H         2.762464        -0.139154         1.987790
 H         4.388241        -0.871507        -0.103903
 H         2.920658        -1.967405        -0.162448
 H         1.082098        -1.334868        -2.397403
 H         3.539635         1.354786        -1.598654
 H         1.631833         1.397596        -1.949957
 H         1.403224         2.913484         0.628157
