19
Iteration:  3432
 C         0.141883        -0.817417         0.449967
 C         1.456040        -0.185750         0.198946
 C         2.889030        -0.171328         0.820300
 C         3.459717        -0.989225        -0.233566
 C         2.303883        -0.459176        -1.215654
 O         1.817580        -1.003071        -2.519919
 C         2.367003         1.147474        -1.274794
 C         2.135428         1.127805         0.289910
 O         1.865018         2.238994         1.083569
 H        -0.501058        -0.189566         1.029785
 H        -0.486041        -1.094242        -0.378627
 H         0.437255        -1.680057         1.074356
 H         3.045139        -0.341954         1.887085
 H         4.473542        -0.622770        -0.638888
 H         3.591212        -2.108151        -0.138857
 H         0.895187        -1.042227        -2.285836
 H         3.151679         1.707078        -1.687802
 H         1.431131         1.378075        -1.662746
 H         1.669845         2.966679         0.476395
