19
Iteration:  1027
 C         0.010555        -0.337829         0.294259
 C         1.412258        -0.252594         0.042643
 C         2.729566        -0.065346         0.933075
 C         3.378892        -0.983805        -0.064021
 C         2.385976        -0.500272        -1.127991
 O         2.016203        -1.209214        -2.269089
 C         2.643897         1.011760        -1.267519
 C         2.187320         1.094536         0.173061
 O         1.596887         2.190153         0.846733
 H        -0.233844         0.139285         1.234844
 H        -0.681891         0.101947        -0.540321
 H        -0.310660        -1.392423         0.433742
 H         2.814780        -0.220560         2.012497
 H         4.448469        -0.830660        -0.137931
 H         3.275450        -2.125985         0.191151
 H         1.919082        -2.200802        -2.104017
 H         3.619220         1.322324        -1.628178
 H         1.901969         1.532585        -1.936501
 H         2.112515         2.952189         0.542339
