19
Iteration:  2282charge 0 multiplicity 1
 C         0.130674        -0.592558         0.506556
 C         1.437644        -0.329108         0.164008
 C         2.763207        -0.101791         0.879352
 C         3.481391        -0.818343        -0.320835
 C         2.267624        -0.415046        -1.146644
 O         2.079514        -1.335855        -2.123515
 C         2.385603         1.151084        -1.384077
 C         2.212541         1.103259         0.132919
 O         1.593752         2.231216         0.835921
 H        -0.266490         0.397858         0.801865
 H        -0.461992        -1.003962        -0.314021
 H         0.072293        -1.398487         1.214917
 H         3.107559        -0.122046         1.924147
 H         4.503114        -0.545188        -0.697443
 H         3.443961        -1.867851        -0.074886
 H         1.213085        -1.208727        -2.586145
 H         3.208598         1.674045        -1.858049
 H         1.555384         1.606994        -1.862572
 H         2.365891         2.733711         1.194628
