19
Iteration:  1975charge 0 multiplicity 1
 C         0.184824        -0.774371         0.654580
 C         1.377359        -0.198259         0.040360
 C         2.643392        -0.106606         0.861780
 C         3.545163        -0.809657        -0.119041
 C         2.339217        -0.374358        -1.162139
 O         1.988963        -1.286722        -2.177625
 C         2.549979         1.031786        -1.448676
 C         2.047341         1.198479         0.038684
 O         1.657263         2.298790         0.775382
 H         0.355749        -0.461938         1.636749
 H        -0.818676        -0.385074         0.480532
 H         0.182350        -1.835427         0.517070
 H         2.574602        -0.080845         1.961564
 H         4.517980        -0.396018        -0.344291
 H         3.486009        -1.863834        -0.136940
 H         1.024519        -1.087561        -2.422221
 H         3.600238         1.277033        -1.786606
 H         1.872996         1.311602        -2.246869
 H         2.272488         2.299092         1.494975
