19
Iteration:  4940
 C        -0.049428        -0.522431         0.466103
 C         1.380986        -0.147827         0.156759
 C         2.633124        -0.144067         0.899355
 C         3.395022        -1.017322        -0.118275
 C         2.313742        -0.469760        -1.079894
 O         2.025167        -1.305125        -2.167484
 C         2.597327         1.023942        -1.312574
 C         2.204306         1.131757         0.105938
 O         1.889921         2.373708         0.735740
 H        -0.850726         0.043373         0.003507
 H        -0.424010        -1.350201        -0.107654
 H        -0.377655        -0.842652         1.403076
 H         2.824066         0.115640         2.003348
 H         4.486123        -1.084366        -0.235372
 H         3.147713        -2.187592        -0.050746
 H         1.254644        -1.070428        -2.727401
 H         3.620216         1.158373        -1.570939
 H         1.830392         1.433456        -2.080302
 H         1.818273         3.007556        -0.016522
