19
Iteration:  1353charge 0 multiplicity 1
 C        -0.006327        -0.761050         0.386999
 C         1.398733        -0.126951         0.240212
 C         2.708969        -0.045683         0.921294
 C         3.394441        -0.958295        -0.114749
 C         2.276653        -0.516220        -1.075527
 O         1.887155        -1.156083        -2.266033
 C         2.610011         0.994621        -1.237980
 C         2.193581         1.222770         0.189029
 O         1.755225         2.365613         0.660651
 H        -0.723531        -0.489480         1.191913
 H        -0.292966        -0.794280        -0.646023
 H         0.187428        -1.958472         0.570274
 H         2.983473        -0.036285         2.013042
 H         4.405101        -0.746250        -0.670320
 H         3.395964        -1.968647         0.140290
 H         2.136503        -2.155458        -2.320641
 H         3.718470         1.017287        -1.474443
 H         2.216363         1.585355        -2.122429
 H         2.427727         3.069522         0.409277
