19
Iteration:  1392
 C         0.029535        -0.599155         0.462371
 C         1.365362        -0.154516         0.022282
 C         2.590959        -0.039133         0.811546
 C         3.529914        -0.955345        -0.111303
 C         2.429903        -0.550127        -1.134978
 O         2.048997        -1.330440        -2.175754
 C         2.449349         1.122809        -1.423691
 C         2.120559         1.162230         0.061352
 O         1.794599         2.334327         0.871264
 H        -0.318242         0.069618         1.263008
 H        -0.744052        -0.286414        -0.279602
 H        -0.075900        -1.573930         0.697365
 H         2.534426        -0.003184         1.895710
 H         4.568381        -0.760643        -0.116834
 H         3.284728        -2.039548         0.188507
 H         1.396149        -1.958651        -1.868859
 H         3.422132         1.461574        -1.785848
 H         1.563317         1.454456        -1.912561
 H         2.350285         2.308292         1.642100
