19
Iteration:  1261charge 0 multiplicity 1
 C        -0.083506        -0.459381         0.497327
 C         1.288814        -0.171572         0.092697
 C         2.678188        -0.103945         0.880095
 C         3.436135        -0.955968        -0.151389
 C         2.383096        -0.464599        -1.186287
 O         2.117955        -1.444442        -2.231627
 C         2.516167         1.093464        -1.305078
 C         2.048271         1.098783         0.147158
 O         1.881361         2.323461         0.820263
 H        -0.363557        -0.041537         1.543524
 H        -0.717176        -0.056275        -0.415434
 H        -0.294287        -1.503768         0.495458
 H         2.920144         0.015177         1.948589
 H         4.432904        -0.636683        -0.492055
 H         3.464345        -2.071410         0.130335
 H         2.441165        -1.016870        -2.993806
 H         3.579275         1.305600        -1.644694
 H         1.887009         1.633450        -1.981325
 H         1.119759         2.429933         1.409601
