19
Iteration:   833charge 0 multiplicity 1
 C        -0.098814        -0.471574         0.283471
 C         1.313719        -0.180351        -0.016806
 C         2.656176        -0.068813         0.876753
 C         3.379692        -1.009475        -0.175685
 C         2.345039        -0.518896        -1.144646
 O         2.120743        -1.370079        -2.227445
 C         2.680627         1.040704        -1.297018
 C         2.112579         1.204396         0.166103
 O         1.852543         2.350032         1.022778
 H        -0.297086         0.012871         1.242990
 H        -0.819133        -0.263297        -0.592035
 H        -0.142563        -1.546550         0.506034
 H         2.689270         0.063741         1.973272
 H         4.399406        -0.667032        -0.509366
 H         3.150469        -2.076371        -0.003311
 H         1.927512        -2.203225        -1.713333
 H         3.649408         1.507638        -1.527502
 H         1.884267         1.413565        -2.023742
 H         0.989193         2.700164         0.730727
