19
Iteration:  1282
 C        -0.079131        -0.600358         0.508931
 C         1.344716        -0.118864         0.060763
 C         2.633882        -0.018031         0.831052
 C         3.393071        -0.923525        -0.171737
 C         2.285471        -0.525389        -1.144249
 O         2.051740        -1.350235        -2.234243
 C         2.607560         0.945510        -1.369236
 C         2.188309         1.208634         0.036656
 O         1.858853         2.325912         0.973193
 H        -0.230234        -0.150439         1.564671
 H        -0.963598        -0.331250        -0.268228
 H        -0.021605        -1.648388         0.661377
 H         2.687579         0.079846         1.924544
 H         4.440898        -0.708567        -0.263796
 H         3.223745        -1.976374         0.308768
 H         2.859533        -1.113534        -2.824510
 H         3.680280         1.353928        -1.441285
 H         2.056569         1.333943        -2.242095
 H         0.873143         2.504042         0.844207
