19
Iteration:   825
 C        -0.047239        -0.408712         0.306633
 C         1.331602        -0.126791        -0.024651
 C         2.602816        -0.035283         0.786025
 C         3.411096        -1.029503        -0.201361
 C         2.358461        -0.492725        -1.105995
 O         2.151610        -1.343366        -2.160183
 C         2.633950         1.035880        -1.301153
 C         2.070175         1.147579         0.139674
 O         1.859697         2.279007         1.001850
 H        -0.586588         0.154669         1.136448
 H        -0.643792        -0.175803        -0.528579
 H        -0.288430        -1.542857         0.454469
 H         2.597144         0.075674         1.888023
 H         4.515017        -0.883497        -0.496461
 H         3.191597        -2.009481         0.137881
 H         1.975809        -2.224516        -1.806882
 H         3.601924         1.434010        -1.579894
 H         1.852908         1.245171        -1.982044
 H         0.947156         2.445987         1.233489
