19
Iteration:  3419
 C         0.099141        -0.849727         0.503778
 C         1.440443        -0.249172         0.166187
 C         2.784169        -0.156601         0.824904
 C         3.473122        -0.929549        -0.395176
 C         2.266809        -0.378320        -1.230257
 O         1.922718        -1.037120        -2.389226
 C         2.327326         1.102454        -1.274335
 C         2.205274         1.118867         0.249934
 O         1.931891         2.279985         1.132573
 H        -0.473015        -0.189398         1.112398
 H        -0.396579        -0.905210        -0.472714
 H         0.056195        -1.878438         0.876167
 H         3.138775        -0.115573         1.891965
 H         4.592515        -0.854019        -0.595034
 H         3.115963        -1.962554        -0.147224
 H         0.962145        -1.043173        -2.648460
 H         3.153486         1.500589        -1.807687
 H         1.451109         1.466772        -1.742215
 H         1.244138         2.777317         0.620222
