19
Iteration:   577charge 0 multiplicity 1
 C        -0.124784        -0.218016         0.309045
 C         1.341485        -0.236339        -0.027861
 C         2.599845        -0.127372         0.940408
 C         3.459187        -0.980750        -0.062102
 C         2.403966        -0.492154        -1.169382
 O         2.125302        -1.375116        -2.291745
 C         2.744138         1.119020        -1.239880
 C         2.151626         1.089444         0.123495
 O         1.693116         2.167393         0.925755
 H        -0.292460         0.413065         1.175358
 H        -0.922024        -0.028150        -0.573512
 H        -0.365826        -1.149447         0.789396
 H         2.407939        -0.133348         2.013567
 H         4.543063        -0.846248        -0.257164
 H         3.363578        -2.129200         0.122151
 H         1.532318        -2.060260        -1.946164
 H         3.792275         1.587114        -1.216663
 H         2.017407         1.484861        -1.944701
 H         1.591057         2.901327         0.318837
