19
Iteration:  1767
 C         0.144388        -0.786399         0.558055
 C         1.389525        -0.187246         0.202297
 C         2.717015        -0.059281         0.804959
 C         3.484274        -0.918858        -0.244579
 C         2.373710        -0.442498        -1.199313
 O         2.034423        -1.377505        -2.093326
 C         2.354579         1.141117        -1.300418
 C         2.049219         1.153252         0.144900
 O         1.723026         2.382510         0.709497
 H        -0.246448        -0.415670         1.489918
 H        -0.676524        -0.654911        -0.223191
 H         0.254005        -1.861491         0.504906
 H         2.861008        -0.282364         1.882565
 H         4.494846        -0.523544        -0.450310
 H         3.514962        -2.005294        -0.083814
 H         1.678357        -0.882646        -2.800749
 H         3.320795         1.604662        -1.593725
 H         1.640158         1.746680        -1.837806
 H         2.541734         2.961222         0.778058
