19
Iteration:   353charge 0 multiplicity 1
 C        -0.132761        -0.269737         0.374499
 C         1.295627        -0.134252        -0.074151
 C         2.507309        -0.097632         0.914624
 C         3.194357        -1.077364        -0.022241
 C         2.307154        -0.501810        -1.145321
 O         2.477822        -1.452089        -2.272088
 C         2.707804         0.987815        -1.291007
 C         2.152869         1.179315         0.150396
 O         1.828266         2.292980         0.946626
 H        -0.176927         0.574183         1.143454
 H        -0.827330        -0.076130        -0.400248
 H        -0.406062        -1.304885         0.761319
 H         2.395937        -0.170301         2.001959
 H         4.298018        -1.087558        -0.310967
 H         2.812950        -2.039928         0.112421
 H         1.698293        -1.276447        -2.939131
 H         3.629863         1.373595        -1.639294
 H         2.051322         1.434273        -2.084571
 H         0.921983         2.645539         0.798678
