19
Iteration:  2667
 C         0.086969        -0.788256         0.420014
 C         1.506169        -0.248843         0.199499
 C         2.826494         0.004986         0.847529
 C         3.577923        -0.858378        -0.148704
 C         2.369767        -0.521510        -1.076082
 O         1.821161        -1.254880        -2.198303
 C         2.441312         1.066711        -1.438865
 C         2.072178         1.204080         0.106612
 O         1.650859         2.282916         0.892087
 H        -0.813237        -0.402571        -0.126815
 H         0.067384        -1.850729         0.299606
 H        -0.270081        -0.367059         1.335055
 H         2.990826         0.054588         1.970467
 H         4.579077        -0.616009        -0.562893
 H         3.569349        -1.917555         0.204199
 H         2.005782        -0.781000        -3.054396
 H         3.404414         1.436661        -1.697787
 H         1.608958         1.321520        -2.102063
 H         2.384810         2.935320         0.834595
