19
Iteration:  1650charge 0 multiplicity 1
 C         0.013534        -0.578158         0.655439
 C         1.478375        -0.266532         0.199623
 C         2.817090         0.041597         0.815208
 C         3.479414        -1.006723        -0.211248
 C         2.366564        -0.519910        -1.072099
 O         1.985184        -1.230841        -2.249752
 C         2.541573         1.070948        -1.346629
 C         2.080941         1.196586         0.090564
 O         1.621335         2.253155         0.696114
 H        -0.089392         0.124160         1.598190
 H        -0.710144        -0.063817        -0.037399
 H        -0.358740        -1.647425         0.785599
 H         3.023546        -0.069924         1.900740
 H         4.600017        -0.895261        -0.480245
 H         3.183226        -2.038497        -0.014030
 H         2.703582        -1.409444        -2.855767
 H         3.542236         1.534574        -1.662569
 H         1.785931         1.351723        -2.198683
 H         0.943236         2.076335         1.359832
