19
Iteration:  2909
 C         0.055212        -0.693794         0.743762
 C         1.350718        -0.318533         0.134549
 C         2.756481        -0.086872         0.835255
 C         3.475863        -0.752436        -0.355570
 C         2.314921        -0.386650        -1.294275
 O         2.095877        -1.238242        -2.387776
 C         2.356804         1.070852        -1.403691
 C         1.990468         1.110769         0.168316
 O         1.800105         2.291840         0.968967
 H         0.194138        -0.599977         1.884675
 H        -0.729495         0.068189         0.481504
 H        -0.430612        -1.633976         0.356663
 H         2.948616        -0.181701         1.951160
 H         4.457655        -0.457172        -0.352905
 H         3.722482        -1.753976        -0.363226
 H         2.161053        -2.083222        -1.975415
 H         3.407299         1.337581        -1.781224
 H         1.561352         1.478597        -2.063133
 H         2.420524         2.225616         1.722129
