19
Iteration:  1863charge 0 multiplicity 1
 C         0.087404        -0.595580         0.619829
 C         1.406655        -0.143804         0.189999
 C         2.852340        -0.090381         0.879984
 C         3.499814        -0.818956        -0.291426
 C         2.299854        -0.519365        -1.153819
 O         2.048466        -1.446716        -2.279245
 C         2.409508         1.047751        -1.360946
 C         2.074264         1.126031         0.148344
 O         1.577230         2.331743         0.884414
 H        -0.249741        -0.021008         1.402832
 H        -0.687280        -0.650026        -0.150672
 H         0.103911        -1.695517         0.891981
 H         3.009160         0.050088         1.960213
 H         4.299819        -0.284526        -0.761988
 H         3.755129        -1.926618        -0.167010
 H         2.320929        -0.986481        -3.054809
 H         3.441738         1.197371        -1.715376
 H         1.771248         1.745207        -1.924684
 H         2.313600         2.904166         0.572783
