19
Iteration:  2190charge 0 multiplicity 1
 C         0.140498        -0.825304         0.647597
 C         1.397262        -0.144115         0.127685
 C         2.697817        -0.078935         0.794090
 C         3.479211        -0.898078        -0.311996
 C         2.296672        -0.510527        -1.180619
 O         2.112385        -1.341005        -2.195367
 C         2.408717         1.040959        -1.331283
 C         2.076410         1.259750         0.237628
 O         1.678888         2.437381         0.842194
 H         0.020724        -0.779058         1.679989
 H        -0.720722        -0.335418         0.177466
 H         0.069242        -1.825793         0.186951
 H         2.699848        -0.216764         1.914829
 H         4.510633        -0.873892        -0.635807
 H         3.307307        -1.975591         0.010792
 H         1.806791        -1.058687        -3.034562
 H         3.298806         1.520331        -1.781548
 H         1.672792         1.390327        -2.076479
 H         2.372694         3.062158         0.532636
