19
Iteration:  4450charge 0 multiplicity 1
 C        -0.122480        -0.649104         0.316788
 C         1.305501        -0.136045         0.071029
 C         2.675623        -0.040024         0.872663
 C         3.309548        -0.953918        -0.058849
 C         2.320745        -0.490842        -1.159084
 O         2.040952        -1.350658        -2.147191
 C         2.558737         1.015200        -1.405315
 C         2.127692         1.199099         0.175849
 O         2.158902         2.355416         0.868239
 H        -0.516184        -1.440768        -0.393624
 H        -0.431434        -0.991288         1.380681
 H        -0.567381         0.372872         0.395142
 H         2.757782        -0.238340         2.057832
 H         4.414352        -0.851806        -0.154309
 H         2.977668        -1.937922        -0.052254
 H         1.111627        -1.284672        -2.430644
 H         3.556427         1.334672        -1.652616
 H         1.748915         1.361063        -1.964650
 H         1.328461         2.839150         0.636549
