19
Iteration:  1660
 C         0.077731        -0.516479         0.631760
 C         1.432824        -0.206149         0.166865
 C         2.831046        -0.061998         0.830947
 C         3.479730        -0.958288        -0.226523
 C         2.347400        -0.472858        -1.125706
 O         1.978198        -1.197369        -2.209630
 C         2.528495         0.969673        -1.340173
 C         2.126397         1.093612         0.117336
 O         1.580031         2.327398         0.701412
 H        -0.258197        -0.141194         1.693542
 H        -0.596984        -0.260198        -0.232850
 H        -0.003237        -1.626763         0.763176
 H         3.053572         0.042283         1.913748
 H         4.540395        -0.966082        -0.669882
 H         3.254421        -1.968794         0.063312
 H         2.807067        -1.478221        -2.544967
 H         3.550706         1.347536        -1.694275
 H         1.661942         1.353746        -1.986407
 H         0.830610         2.026266         1.279108
