19
Iteration:  2980charge 0 multiplicity 1
 C         0.095066        -0.661201         0.564569
 C         1.474023        -0.186675         0.152671
 C         2.962469        -0.099394         0.794149
 C         3.509827        -0.912504        -0.343763
 C         2.297409        -0.445796        -1.186521
 O         1.852337        -1.109608        -2.310406
 C         2.467918         1.087760        -1.214771
 C         2.142307         1.092334         0.242631
 O         1.547264         2.189223         0.873157
 H        -0.469576         0.145145         1.028521
 H        -0.484787        -1.140708        -0.253984
 H         0.171110        -1.487656         1.305842
 H         3.127780        -0.156214         1.835421
 H         4.517020        -0.763248        -0.891820
 H         3.765855        -2.004040        -0.281028
 H         2.094705        -2.020850        -2.321010
 H         3.422736         1.519309        -1.465605
 H         1.662193         1.731091        -1.592057
 H         2.057009         2.984130         0.636374
