19
Iteration:  3812
 C         0.003658        -0.757013         0.473118
 C         1.345769        -0.090821         0.049671
 C         2.686990        -0.168853         0.838745
 C         3.431111        -0.975444        -0.292175
 C         2.270792        -0.469797        -1.155900
 O         1.824692        -1.135447        -2.333758
 C         2.490139         1.168938        -1.229271
 C         2.193408         1.127995         0.200270
 O         1.968319         2.268621         1.011032
 H        -0.719219        -0.045235         0.847833
 H        -0.475509        -1.048960        -0.503186
 H         0.215742        -1.731327         1.004849
 H         2.719145        -0.317321         1.961373
 H         4.397779        -0.660051        -0.671220
 H         3.297769        -1.999307        -0.087107
 H         2.498574        -1.263027        -3.043957
 H         3.471404         1.618934        -1.480983
 H         1.712299         1.547092        -1.899722
 H         2.782904         2.326912         1.538549
