19
Iteration:  3099charge 0 multiplicity 1
 C        -0.023039        -0.766729         0.601875
 C         1.362761        -0.342113         0.139676
 C         2.813388        -0.057634         0.758226
 C         3.507539        -0.695089        -0.295983
 C         2.288794        -0.510396        -1.188229
 O         2.045600        -1.110567        -2.349287
 C         2.242935         1.099363        -1.369323
 C         2.061566         1.109522         0.129052
 O         1.893089         2.258999         1.006315
 H        -0.739275         0.082189         0.522729
 H        -0.478897        -1.820215         0.378749
 H         0.077456        -0.769752         1.756298
 H         2.972784        -0.098237         1.842740
 H         4.459353        -0.440778        -0.524190
 H         3.804012        -1.752899        -0.258425
 H         2.291805        -2.093823        -2.339253
 H         3.276936         1.487719        -1.746204
 H         1.274683         1.405000        -1.967134
 H         2.650596         2.163455         1.623325
