19
Iteration:   793
 C        -0.128975        -0.327435         0.329632
 C         1.360612        -0.224879         0.114883
 C         2.618868        -0.129925         1.004007
 C         3.451157        -0.945683        -0.039369
 C         2.371990        -0.514319        -1.148784
 O         2.070965        -1.233169        -2.358969
 C         2.611324         1.001122        -1.334223
 C         2.220993         1.042274         0.206485
 O         1.754263         2.274432         0.780892
 H        -0.576283         0.432431         1.065245
 H        -0.512947        -0.104022        -0.601529
 H        -0.431345        -1.423083         0.597132
 H         2.843891         0.155902         2.066425
 H         4.521610        -0.652046        -0.293145
 H         3.596589        -1.990811         0.173613
 H         2.243927        -2.171963        -2.268262
 H         3.457567         1.396262        -1.913791
 H         1.721666         1.311463        -1.810368
 H         1.522647         2.144268         1.747134
