19
Iteration:   348charge 0 multiplicity 1
 C        -0.148792        -0.310748         0.376868
 C         1.291842        -0.161704        -0.067265
 C         2.480387        -0.136790         0.895494
 C         3.209863        -1.081106        -0.025355
 C         2.329335        -0.542502        -1.106639
 O         2.474254        -1.434743        -2.308577
 C         2.693158         1.046403        -1.285603
 C         2.135582         1.123066         0.172156
 O         1.846585         2.354297         0.915498
 H        -0.063591         0.471302         1.097036
 H        -0.910940         0.111277        -0.370200
 H        -0.352034        -1.264091         0.878635
 H         2.422574        -0.084381         1.979988
 H         4.251580        -1.110634        -0.260691
 H         2.760222        -2.133327         0.241136
 H         1.710841        -1.303025        -2.819783
 H         3.731190         1.543155        -1.455853
 H         2.029085         1.511272        -2.019642
 H         1.073340         2.866183         0.616490
