19
Iteration:   892charge 0 multiplicity 1
 C        -0.080672        -0.726965         0.421715
 C         1.375831        -0.233880         0.158743
 C         2.639826        -0.105106         0.884189
 C         3.446037        -1.099811         0.035822
 C         2.342859        -0.525823        -1.094022
 O         2.011328        -0.978795        -2.363964
 C         2.682448         0.943538        -1.209378
 C         2.081973         1.146432         0.123372
 O         1.773355         2.516870         0.646494
 H        -0.610732        -0.384159         1.367784
 H        -0.642660        -0.435659        -0.420080
 H        -0.046100        -1.885307         0.373375
 H         2.583268        -0.230384         1.949714
 H         4.557090        -1.233248        -0.096112
 H         3.154606        -2.092492         0.326264
 H         1.803042        -1.958047        -2.265869
 H         3.717694         1.251641        -1.336649
 H         2.023148         1.303667        -1.964602
 H         2.702091         2.867336         0.803304
