19
Iteration:  3925charge 0 multiplicity 1
 C        -0.031940        -0.372737         0.549844
 C         1.471236        -0.205042         0.060841
 C         2.766453        -0.186729         0.846096
 C         3.462957        -1.015374        -0.348924
 C         2.321166        -0.481822        -1.231018
 O         1.816526        -1.162421        -2.302202
 C         2.700262         1.101522        -1.257628
 C         2.237230         1.083825         0.219085
 O         1.589879         2.135733         1.018225
 H        -0.204495        -0.590027         1.622814
 H        -0.590940         0.594259         0.631175
 H        -0.630889        -0.946599        -0.202937
 H         2.901381        -0.548277         1.819564
 H         4.423174        -0.788884        -0.531251
 H         3.523598        -2.062386        -0.155019
 H         2.572803        -1.206653        -2.947132
 H         3.691891         1.302631        -1.649602
 H         1.950007         1.466879        -1.923200
 H         2.377554         2.688114         0.937004
