19
Iteration:  2486
 C        -0.014692        -0.653099         0.461097
 C         1.386129        -0.180457         0.098161
 C         2.798671         0.065102         0.795875
 C         3.512026        -0.832025        -0.141467
 C         2.332431        -0.511210        -1.097424
 O         2.094282        -1.409614        -2.196542
 C         2.364821         1.004619        -1.395601
 C         2.042506         1.165975         0.121284
 O         1.767716         2.258747         0.921685
 H        -0.039542        -0.758809         1.505640
 H        -0.778701         0.117331         0.234160
 H        -0.154801        -1.594098        -0.086814
 H         3.003154         0.109992         1.917754
 H         4.547390        -0.602717        -0.332613
 H         3.570795        -1.838371         0.251291
 H         1.805978        -0.960855        -3.043316
 H         3.202599         1.508469        -1.788469
 H         1.417470         1.257892        -1.803613
 H         2.231194         3.029548         0.559389
