19
Iteration:  3079charge 0 multiplicity 1
 C         0.030591        -0.830594         0.657329
 C         1.340424        -0.236180         0.187219
 C         2.679361        -0.110644         0.785097
 C         3.511875        -0.754025        -0.373933
 C         2.317001        -0.383475        -1.247196
 O         2.108386        -1.231717        -2.394448
 C         2.254543         1.185202        -1.274769
 C         2.040542         1.092365         0.218478
 O         1.945253         2.300711         0.912664
 H        -0.816138        -0.126653         0.638463
 H        -0.143865        -1.617700        -0.151059
 H        -0.113680        -1.217943         1.712672
 H         2.810809        -0.046893         1.893164
 H         4.458688        -0.281222        -0.716960
 H         3.789199        -1.839029        -0.065095
 H         1.640443        -1.962796        -1.981528
 H         3.181774         1.562326        -1.754082
 H         1.300923         1.337013        -1.779283
 H         2.605295         2.118315         1.587403
