19
Iteration:  1835
 C         0.128963        -0.664440         0.726078
 C         1.474526        -0.252390         0.121151
 C         2.789492        -0.035771         0.859513
 C         3.442377        -0.921686        -0.188772
 C         2.473953        -0.447747        -1.161474
 O         1.986094        -1.290760        -2.193498
 C         2.420161         1.121797        -1.417231
 C         2.153106         1.154819         0.054870
 O         1.527251         2.221120         0.736527
 H        -0.043445         0.076194         1.624679
 H        -0.742381        -0.303680         0.095729
 H        -0.112566        -1.681084         0.953418
 H         2.778605         0.038057         1.917837
 H         4.501908        -0.713719        -0.552039
 H         3.223751        -1.932132        -0.000515
 H         2.063617        -0.875041        -3.086886
 H         3.377640         1.554769        -1.795169
 H         1.558861         1.508431        -1.955735
 H         2.244255         2.550368         1.289101
