19
Iteration:   829
 C        -0.062954        -0.434558         0.299471
 C         1.309788        -0.165827        -0.032411
 C         2.630997        -0.044576         0.827483
 C         3.408320        -1.026220        -0.204935
 C         2.346155        -0.509570        -1.120934
 O         2.140343        -1.356464        -2.188250
 C         2.668900         1.034096        -1.297792
 C         2.087548         1.177041         0.162220
 O         1.859548         2.317519         1.016951
 H        -0.457054         0.067538         1.186240
 H        -0.737743        -0.242627        -0.581007
 H        -0.202725        -1.488320         0.453074
 H         2.620160         0.121772         1.887800
 H         4.375389        -0.744357        -0.504259
 H         3.100064        -2.091817         0.069025
 H         1.951737        -2.197946        -1.719192
 H         3.652534         1.519054        -1.550334
 H         1.818720         1.277192        -1.991254
 H         0.890494         2.611169         1.007847
