19
Iteration:  4696charge 0 multiplicity 1
 C        -0.003517        -0.592589         0.427519
 C         1.316413        -0.102638         0.114475
 C         2.639739        -0.041985         0.981070
 C         3.340338        -1.073870        -0.093796
 C         2.348252        -0.494389        -1.163501
 O         1.871464        -1.305137        -2.184724
 C         2.701210         1.059315        -1.327906
 C         2.144573         1.144220         0.032396
 O         1.951411         2.346122         0.808817
 H        -0.825042        -0.540974        -0.395696
 H         0.177799        -1.628885         0.870124
 H        -0.584611         0.061938         1.217202
 H         2.715407         0.145763         2.082537
 H         4.414369        -0.806342        -0.146821
 H         3.259737        -2.169107        -0.017066
 H         2.443599        -1.208058        -2.985402
 H         3.811129         1.129045        -1.567149
 H         2.161414         1.504218        -2.130349
 H         1.076823         2.652035         0.560820
