19
Iteration:  1686charge 0 multiplicity 1
 C         0.102678        -0.628924         0.566562
 C         1.438367        -0.239958         0.162084
 C         2.683003        -0.094995         0.893462
 C         3.570100        -0.821591        -0.186883
 C         2.349953        -0.480357        -1.138141
 O         1.871796        -1.340773        -2.296027
 C         2.545953         1.108544        -1.347302
 C         2.177498         1.163175         0.159248
 O         1.693278         2.370170         0.746354
 H        -0.279603        -0.183799         1.510504
 H        -0.477518        -0.391729        -0.300561
 H         0.017667        -1.755262         0.842136
 H         2.713970        -0.309662         1.948711
 H         4.545284        -0.513765        -0.565027
 H         3.542538        -1.988671        -0.123233
 H         2.359993        -2.123451        -2.055358
 H         3.472311         1.583789        -1.671486
 H         1.593212         1.441588        -1.859744
 H         0.720344         2.279627         0.866892
