19
Iteration:  3971
 C        -0.096114        -0.417963         0.451883
 C         1.374379        -0.233753         0.193595
 C         2.715716        -0.219151         0.803651
 C         3.380442        -0.938801        -0.266795
 C         2.330920        -0.499126        -1.186565
 O         2.085258        -1.176815        -2.397099
 C         2.472609         1.033226        -1.287804
 C         2.212039         1.108045         0.252208
 O         1.880682         2.216574         0.974219
 H        -0.382660        -0.932995         1.399382
 H        -0.661222         0.467050         0.825330
 H        -0.629815        -0.750246        -0.419186
 H         2.998661        -0.243459         1.915649
 H         4.327538        -0.896005        -0.600107
 H         3.272051        -2.016081        -0.204457
 H         1.103931        -1.219176        -2.549874
 H         3.353800         1.515432        -1.666946
 H         1.623122         1.372535        -1.887849
 H         2.530355         2.643583         1.542037
