19
Iteration:   371
 C        -0.194145        -0.207007         0.328762
 C         1.280532         0.043696         0.086785
 C         2.519945        -0.131850         0.854542
 C         3.277102        -1.017191        -0.034929
 C         2.438177        -0.549081        -1.152372
 O         2.340619        -1.434226        -2.192999
 C         2.716120         0.978870        -1.411363
 C         2.189161         1.089326         0.093740
 O         1.769491         2.172126         0.959133
 H        -0.654603         0.402375         1.076666
 H        -0.764630        -0.008588        -0.609066
 H        -0.154718        -1.258645         0.710332
 H         2.636124         0.089905         1.909042
 H         4.340360        -0.870923        -0.028994
 H         3.017847        -2.105722         0.286115
 H         2.022158        -0.919654        -3.033178
 H         3.830306         1.227075        -1.507528
 H         2.118635         1.592650        -2.109753
 H         0.799298         2.123668         0.983760
