19
Iteration:  1670
 C         0.129871        -0.564238         0.562376
 C         1.457928        -0.109316         0.150220
 C         2.838481        -0.164787         0.926549
 C         3.463506        -0.942197        -0.212755
 C         2.316642        -0.498681        -1.169858
 O         1.945698        -1.263492        -2.255076
 C         2.487199         1.019063        -1.308102
 C         2.151716         1.146842         0.151455
 O         1.599625         2.347503         0.696123
 H        -0.257430         0.014314         1.528744
 H        -0.805719        -0.320041        -0.061688
 H         0.249082        -1.620508         0.729182
 H         3.064643        -0.020657         2.007157
 H         4.458368        -0.443663        -0.493314
 H         3.533443        -1.950158         0.116506
 H         2.637274        -1.829673        -2.534871
 H         3.540963         1.250115        -1.680341
 H         1.627190         1.469253        -1.888745
 H         0.738548         2.043262         1.126489
