19
Iteration:  1775
 C         0.095258        -0.801178         0.608726
 C         1.403390        -0.177457         0.211950
 C         2.759566        -0.132622         0.809420
 C         3.482926        -0.821990        -0.225163
 C         2.332134        -0.384279        -1.120167
 O         2.004720        -1.344963        -2.130306
 C         2.432078         1.100236        -1.335608
 C         2.063126         1.140383         0.110634
 O         1.672785         2.360826         0.669341
 H        -0.197590        -0.473926         1.567623
 H        -0.635354        -0.553038        -0.191776
 H         0.143114        -1.993482         0.599814
 H         3.065344        -0.104188         1.882983
 H         4.498521        -0.543400        -0.447215
 H         3.432227        -1.989396        -0.202509
 H         1.809345        -0.954132        -2.963999
 H         3.507314         1.383360        -1.468724
 H         1.824831         1.761288        -2.026828
 H         2.539570         2.707107         1.022074
