19
Iteration:  2714
 C         0.161595        -0.607945         0.777709
 C         1.473544        -0.317597         0.078586
 C         2.772229        -0.185580         0.771627
 C         3.516626        -0.922509        -0.300395
 C         2.294835        -0.381481        -1.236646
 O         1.913392        -1.239358        -2.190991
 C         2.598825         1.192194        -1.325765
 C         2.109646         1.134872         0.159038
 O         1.490432         2.274245         0.715354
 H        -0.502713        -1.066880         0.083411
 H         0.174373        -1.348749         1.563936
 H        -0.391034         0.259415         0.913633
 H         2.948312        -0.164621         1.814538
 H         4.563634        -0.592631        -0.371575
 H         3.476091        -2.012120        -0.047785
 H         2.645781        -1.620484        -2.622565
 H         3.564353         1.620207        -1.531773
 H         1.791034         1.710560        -1.845533
 H         1.785975         2.286219         1.664322
