19
Iteration:  4805charge 0 multiplicity 1
 C        -0.104744        -0.370247         0.436556
 C         1.377831        -0.092664         0.081714
 C         2.676540        -0.045500         0.980809
 C         3.483098        -0.912657        -0.173334
 C         2.367022        -0.539170        -1.128679
 O         1.949013        -1.405083        -2.199597
 C         2.676506         1.008981        -1.377715
 C         2.161348         1.117079         0.059349
 O         1.825946         2.182196         0.888224
 H        -0.669146        -0.695289        -0.452183
 H        -0.183958        -1.043804         1.276013
 H        -0.314780         0.523397         1.000642
 H         2.725270        -0.093741         2.093558
 H         4.609247        -1.023441        -0.362993
 H         3.232882        -1.982049         0.012116
 H         1.299295        -0.988302        -2.771704
 H         3.801536         1.214615        -1.687821
 H         1.999441         1.441384        -2.112537
 H         1.116932         2.784785         0.559744
