19
Iteration:  3998
 C        -0.093175        -0.566337         0.451535
 C         1.342189        -0.129225         0.068388
 C         2.716904        -0.209633         0.859130
 C         3.393428        -0.950017        -0.199808
 C         2.245073        -0.496771        -1.142439
 O         1.971332        -1.165661        -2.393484
 C         2.575666         1.136609        -1.276061
 C         2.111766         1.139880         0.189904
 O         1.986386         2.260550         0.954260
 H        -0.173899        -1.472773         1.034692
 H        -0.702064         0.086440         1.059442
 H        -0.658784        -0.672451        -0.501994
 H         2.770401        -0.318172         1.894621
 H         4.500911        -0.836070        -0.674630
 H         3.291099        -2.071350        -0.142127
 H         1.726651        -2.103854        -2.169060
 H         3.614009         1.569161        -1.439737
 H         1.802615         1.527732        -1.968463
 H         2.664758         2.260273         1.634143
