19
Iteration:    45charge 0 multiplicity 1
 C        -0.058942        -0.482266        -0.036757
 C         1.343042        -0.171659        -0.006406
 C         2.422721        -0.068676         0.983896
 C         3.350097        -0.862567         0.008360
 C         2.345726        -0.549560        -1.090471
 O         2.073915        -1.461818        -2.048370
 C         2.721029         1.006874        -1.328566
 C         2.121578         1.163804         0.120484
 O         1.945723         2.395888         0.939115
 H        -0.748988        -0.048618         0.610838
 H        -0.491881        -0.265591        -0.985245
 H        -0.154655        -1.539906         0.098599
 H         2.322192        -0.158492         2.070844
 H         4.382154        -0.610854        -0.258198
 H         3.248398        -1.930918         0.135896
 H         1.162400        -1.486373        -2.375840
 H         3.772631         1.259786        -1.468016
 H         2.070406         1.544404        -2.042314
 H         2.845482         2.430256         1.278743
