19
Iteration:  3598
 C         0.145956        -0.812488         0.535734
 C         1.415560        -0.187649         0.093185
 C         2.792141        -0.137243         0.815803
 C         3.416018        -0.954957        -0.310265
 C         2.369591        -0.384286        -1.202712
 O         1.730836        -1.001454        -2.294925
 C         2.544546         1.097887        -1.308660
 C         2.150386         1.137578         0.147604
 O         1.791643         2.286336         0.998760
 H        -0.070390        -1.163265         1.555958
 H        -0.588297        -0.047652         0.313749
 H        -0.057708        -1.561258        -0.233704
 H         3.032237        -0.371130         1.845522
 H         4.555018        -0.869389        -0.657090
 H         3.017441        -2.057315        -0.199116
 H         2.183419        -1.880191        -2.441726
 H         3.570448         1.470273        -1.559919
 H         1.711508         1.519459        -1.883565
 H         1.928089         1.887621         1.860392
