19
Iteration:  4026
 C         0.024060        -0.699530         0.433540
 C         1.376856        -0.088192         0.009673
 C         2.602990        -0.230628         0.875091
 C         3.367363        -1.004146        -0.120111
 C         2.261830        -0.452930        -1.164924
 O         1.788138        -1.103385        -2.274369
 C         2.707057         1.103692        -1.348651
 C         2.188217         1.148849         0.182138
 O         1.929622         2.303404         0.921973
 H        -0.043618        -1.834799         0.353622
 H        -0.363428        -0.304776         1.422302
 H        -0.751794        -0.343684        -0.282574
 H         2.657750        -0.196180         2.031354
 H         4.393375        -0.836258        -0.342724
 H         3.052082        -2.045773        -0.217377
 H         2.484415        -1.758538        -2.497133
 H         3.726687         1.340447        -1.606421
 H         1.944300         1.603943        -1.993736
 H         2.726468         2.432070         1.481007
