19
Iteration:   263
 C         0.010805        -0.597755         0.099712
 C         1.372860        -0.048936         0.001479
 C         2.572357        -0.143638         0.913197
 C         3.215310        -1.172285         0.093726
 C         2.405347        -0.421009        -1.066920
 O         1.955354        -1.317714        -2.049272
 C         2.785401         1.084871        -1.299593
 C         2.251514         1.172179         0.109753
 O         1.766937         2.422174         0.755063
 H        -0.510286        -0.363547         1.022007
 H        -0.637391        -0.255191        -0.660303
 H        -0.226866        -1.727022        -0.099805
 H         2.524981         0.096790         1.985331
 H         4.290070        -1.218031        -0.029642
 H         2.691500        -2.185707         0.170045
 H         2.554219        -1.346369        -2.857953
 H         3.811657         1.376032        -1.505049
 H         2.082168         1.497648        -2.071167
 H         2.158779         2.551057         1.654768
