19
Iteration:  4187charge 0 multiplicity 1
 C        -0.150949        -0.382641         0.448229
 C         1.370129        -0.116819         0.131466
 C         2.736778        -0.260383         0.926936
 C         3.458372        -1.100420        -0.188398
 C         2.282547        -0.470767        -1.194731
 O         1.901920        -1.179411        -2.331803
 C         2.649606         1.061731        -1.238681
 C         2.154459         1.109176         0.236997
 O         1.827782         2.240887         0.807689
 H        -0.757381         0.193571        -0.225998
 H        -0.338886        -1.435316         0.334057
 H        -0.366378        -0.067576         1.478045
 H         2.808045        -0.278272         2.017313
 H         4.499549        -0.728976        -0.375989
 H         3.397247        -2.160701        -0.035605
 H         2.723233        -1.464184        -2.763038
 H         3.669145         1.296664        -1.650777
 H         1.781414         1.286573        -1.795704
 H         2.547545         2.865931         1.052428
