19
Iteration:  4407charge 0 multiplicity 1
 C        -0.099853        -0.461412         0.410640
 C         1.361524        -0.173439         0.046727
 C         2.675239        -0.143014         0.935469
 C         3.446299        -1.001390        -0.151668
 C         2.332306        -0.504971        -1.122585
 O         1.965972        -1.326487        -2.266413
 C         2.674303         0.954030        -1.276993
 C         2.141640         1.148822         0.087210
 O         1.891857         2.373599         0.891722
 H        -0.404553        -1.511827         0.106706
 H        -0.168999        -0.336040         1.538373
 H        -0.769021         0.347398         0.034701
 H         2.675827        -0.088869         2.088834
 H         4.518642        -0.760714        -0.406747
 H         3.310984        -2.015626         0.093261
 H         1.004509        -1.395096        -2.248159
 H         3.705247         1.274271        -1.524929
 H         2.031767         1.390741        -1.964379
 H         1.661705         3.084740         0.245240
