19
Iteration:  3869charge 0 multiplicity 1
 C        -0.018679        -0.687137         0.400032
 C         1.349858        -0.125413         0.046917
 C         2.725951        -0.200379         0.857282
 C         3.457743        -1.012683        -0.228756
 C         2.302210        -0.445914        -1.176936
 O         1.922471        -1.084061        -2.375359
 C         2.484055         1.071498        -1.237195
 C         2.228831         1.181489         0.235781
 O         1.879511         2.284959         0.987867
 H        -0.071506        -0.765437         1.499156
 H        -0.870210        -0.157153        -0.090753
 H        -0.211086        -1.813707         0.285928
 H         2.915974        -0.235331         1.926422
 H         4.507169        -0.958948        -0.389169
 H         3.153292        -2.029070        -0.106635
 H         1.001594        -1.352650        -2.305859
 H         3.473926         1.375944        -1.612834
 H         1.769327         1.426894        -1.940692
 H         2.801838         2.500194         1.277991
