19
Iteration:   644charge 0 multiplicity 1
 C        -0.182000        -0.527123         0.162666
 C         1.339819        -0.222923         0.142850
 C         2.654779        -0.175427         1.000757
 C         3.452476        -1.070740         0.044358
 C         2.484160        -0.566947        -1.081147
 O         2.021294        -1.148486        -2.356927
 C         2.537573         1.003643        -1.186490
 C         2.092080         1.181329         0.159359
 O         1.906930         2.467407         0.701751
 H        -0.526153        -0.086276         1.062951
 H        -0.553768        -0.051733        -0.812956
 H        -0.282890        -1.570488         0.211707
 H         2.757334        -0.029976         2.085814
 H         4.550067        -0.958983        -0.093102
 H         3.206435        -2.189362         0.192078
 H         2.183636        -2.123859        -2.172285
 H         3.479753         1.503920        -1.545855
 H         1.737531         1.187226        -1.919856
 H         1.714817         2.339235         1.670314
