19
Iteration:   347
 C        -0.148731        -0.318767         0.376551
 C         1.286520        -0.164424        -0.062122
 C         2.475792        -0.142731         0.893329
 C         3.211057        -1.085212        -0.025307
 C         2.339246        -0.550875        -1.107143
 O         2.473250        -1.429858        -2.310969
 C         2.691589         1.057343        -1.283253
 C         2.131140         1.116409         0.172504
 O         1.849842         2.362736         0.909716
 H        -0.066281         0.465205         1.124913
 H        -0.931772         0.129258        -0.373594
 H        -0.346585        -1.234772         0.884347
 H         2.427620        -0.076539         1.980239
 H         4.263310        -1.113274        -0.240518
 H         2.778340        -2.118162         0.252902
 H         1.683121        -1.302811        -2.826178
 H         3.738747         1.541082        -1.417743
 H         2.013760         1.519681        -2.001378
 H         1.112974         2.882985         0.575442
