19
Iteration:  1971
 C         0.185546        -0.786249         0.650027
 C         1.365336        -0.195877         0.063474
 C         2.626352        -0.096188         0.847326
 C         3.557739        -0.816977        -0.126407
 C         2.349282        -0.349017        -1.157034
 O         1.972694        -1.308314        -2.171229
 C         2.542887         1.054508        -1.464390
 C         2.064610         1.198439         0.026185
 O         1.655467         2.291578         0.767726
 H         0.311872        -0.563990         1.758864
 H        -0.764313        -0.252801         0.302919
 H         0.213469        -1.968832         0.565037
 H         2.674503        -0.011314         1.921087
 H         4.562241        -0.411773        -0.329500
 H         3.448059        -1.975948        -0.154177
 H         1.065232        -1.121922        -2.372311
 H         3.636865         1.237899        -1.505163
 H         1.893773         1.500134        -2.269489
 H         2.259944         2.306813         1.570871
