19
Iteration:  2800
 C         0.089831        -0.769329         0.503596
 C         1.424281        -0.251726         0.160253
 C         2.731828        -0.148362         0.873746
 C         3.547343        -0.826445        -0.311999
 C         2.251770        -0.435377        -1.178906
 O         2.025412        -1.288623        -2.317816
 C         2.356082         1.160237        -1.316891
 C         2.129550         1.141940         0.169117
 O         1.762442         2.337221         0.942754
 H         0.108592        -1.793969         0.969611
 H        -0.316205         0.016643         1.135698
 H        -0.591612        -0.820661        -0.356376
 H         2.896384        -0.200810         1.924258
 H         4.465848        -0.263081        -0.543215
 H         3.577036        -1.914555        -0.107225
 H         1.410669        -1.910126        -1.816280
 H         3.299598         1.575175        -1.700661
 H         1.510737         1.532472        -1.908227
 H         2.324988         3.120945         0.727322
