19
Iteration:  1534
 C         0.076448        -0.773477         0.459612
 C         1.380374        -0.111635         0.057482
 C         2.641917        -0.045948         0.919413
 C         3.435062        -0.842088        -0.135755
 C         2.350314        -0.483590        -1.121451
 O         1.908107        -1.269221        -2.220733
 C         2.570223         1.057015        -1.377026
 C         2.130135         1.170186         0.161339
 O         1.811604         2.346777         0.753519
 H        -0.531672        -0.411458         1.339342
 H        -0.649537        -0.774357        -0.437994
 H         0.373684        -1.890926         0.521997
 H         2.632744        -0.115394         2.028279
 H         4.427015        -0.433553        -0.288755
 H         3.538827        -1.974243         0.150098
 H         1.656031        -2.111134        -1.779877
 H         3.517546         1.388265        -1.899473
 H         1.690355         1.362649        -1.975823
 H         2.471771         2.656571         1.358900
