19
Iteration:  4352charge 0 multiplicity 1
 C        -0.044866        -0.363486         0.526929
 C         1.395144        -0.135898         0.052936
 C         2.704224        -0.150375         0.832466
 C         3.320286        -1.045602        -0.160921
 C         2.349503        -0.535507        -1.186057
 O         2.009880        -1.323716        -2.244045
 C         2.662942         0.962678        -1.309702
 C         2.253154         1.106008         0.143599
 O         1.793708         2.380345         0.863264
 H        -0.318213        -1.159468         1.303179
 H        -0.566118         0.606871         0.830056
 H        -0.513660        -0.683621        -0.459457
 H         2.892547        -0.337608         1.882699
 H         4.483938        -0.971269        -0.186574
 H         3.029880        -2.000478         0.190384
 H         1.636272        -0.667879        -2.894279
 H         3.766078         1.213615        -1.441561
 H         1.876571         1.378562        -1.851354
 H         0.841819         2.230486         1.038579
