19
Iteration:  3699charge 0 multiplicity 1
 C        -0.033026        -0.559853         0.539102
 C         1.419794        -0.249266         0.169848
 C         2.815094        -0.198990         0.809129
 C         3.439685        -0.935589        -0.352818
 C         2.184001        -0.416530        -1.208175
 O         1.977825        -1.099293        -2.401052
 C         2.433702         1.123823        -1.331119
 C         2.147894         1.059576         0.128795
 O         1.867242         2.155443         1.173835
 H        -0.247462         0.228567         1.320549
 H        -0.787903        -0.461382        -0.225640
 H        -0.192617        -1.502229         1.043451
 H         2.983831        -0.160745         1.909868
 H         4.510370        -0.619377        -0.642424
 H         3.264934        -2.040855        -0.173064
 H         2.619425        -1.753005        -2.690120
 H         3.363906         1.555390        -1.703050
 H         1.583209         1.514895        -1.949603
 H         2.152338         3.030090         0.805882
