19
Iteration:  1221
 C        -0.026428        -0.324375         0.341419
 C         1.407683        -0.194496         0.190553
 C         2.713261        -0.198093         0.959027
 C         3.510046        -0.966171        -0.144954
 C         2.356129        -0.570565        -1.134180
 O         2.090931        -1.236354        -2.259266
 C         2.491627         0.925714        -1.317586
 C         2.160600         1.089814         0.217539
 O         1.678197         2.330822         0.710366
 H        -0.400055         0.046354         1.276555
 H        -0.604547         0.069965        -0.428586
 H        -0.362241        -1.423911         0.348182
 H         2.898283         0.021458         1.995547
 H         4.587850        -0.602083        -0.302667
 H         3.616876        -1.995659         0.081232
 H         1.132823        -1.196047        -2.599518
 H         3.506826         1.265707        -1.532769
 H         1.674755         1.363795        -1.950703
 H         1.952843         2.364522         1.660057
