19
Iteration:  3086
 C        -0.031193        -0.809966         0.667012
 C         1.331213        -0.314648         0.094949
 C         2.717914        -0.056900         0.798419
 C         3.599006        -0.759837        -0.352301
 C         2.271130        -0.372119        -1.203107
 O         2.104202        -1.185557        -2.381768
 C         2.264318         1.086908        -1.324741
 C         2.014568         1.111331         0.210418
 O         1.958960         2.275458         0.955539
 H        -0.852475        -0.064625         0.517069
 H        -0.382024        -1.674971         0.029542
 H         0.058696        -1.080507         1.729386
 H         3.012870         0.034590         1.831751
 H         4.414761        -0.188945        -0.726533
 H         3.547342        -1.774410        -0.091393
 H         1.846765        -2.025178        -2.028326
 H         3.109727         1.647930        -1.836783
 H         1.268348         1.443902        -1.844670
 H         2.626224         2.203825         1.655545
