19
Iteration:  1395charge 0 multiplicity 1
 C         0.026676        -0.566500         0.457281
 C         1.381051        -0.149827         0.018164
 C         2.598216        -0.060526         0.793176
 C         3.515709        -0.948771        -0.100350
 C         2.379178        -0.509514        -1.142281
 O         2.070987        -1.369622        -2.189213
 C         2.463101         1.104082        -1.421871
 C         2.116130         1.157626         0.063904
 O         1.793076         2.324275         0.878042
 H        -0.265324         0.087058         1.359364
 H        -0.774316        -0.281154        -0.270049
 H        -0.091037        -1.654664         0.769131
 H         2.555493         0.076659         1.911767
 H         4.615572        -0.695134        -0.153146
 H         3.356578        -1.962870         0.183852
 H         1.386148        -1.942089        -1.858031
 H         3.453677         1.575893        -1.756597
 H         1.557262         1.463369        -1.867608
 H         2.285551         2.311672         1.743393
