19
Iteration:  4099
 C        -0.088289        -0.392239         0.396312
 C         1.422203        -0.219451         0.076633
 C         2.679503        -0.210068         0.884166
 C         3.432897        -1.055211        -0.193172
 C         2.316991        -0.467111        -1.150812
 O         1.957284        -1.197909        -2.369722
 C         2.597753         1.054886        -1.254123
 C         2.200560         1.079156         0.261843
 O         1.829658         2.265384         0.863261
 H        -0.635127        -1.040371        -0.266159
 H         0.000626        -0.940948         1.326735
 H        -0.771898         0.407823         0.662743
 H         2.844831        -0.285345         2.012987
 H         4.484769        -0.631667        -0.271554
 H         3.270331        -2.063287         0.165908
 H         0.991180        -1.109966        -2.394343
 H         3.677141         1.336202        -1.484660
 H         1.839472         1.538350        -1.886387
 H         2.630595         2.796514         1.092444
