19
Iteration:  2529charge 0 multiplicity 1
 C         0.024959        -0.582297         0.704027
 C         1.441955        -0.195731         0.148436
 C         2.818120        -0.110206         0.831663
 C         3.500936        -0.884770        -0.253446
 C         2.347368        -0.468131        -1.179966
 O         1.955890        -1.249721        -2.223590
 C         2.612835         1.087669        -1.314136
 C         2.149328         1.127192         0.202202
 O         1.439865         2.215845         0.654752
 H        -0.140988        -0.045531         1.602790
 H        -0.704684        -0.374641        -0.091833
 H        -0.012565        -1.587414         1.142166
 H         3.060976        -0.166737         1.951530
 H         4.500170        -0.697174        -0.623247
 H         3.464258        -1.981328        -0.152603
 H         2.721763        -1.536927        -2.714013
 H         3.654735         1.325186        -1.464454
 H         1.904596         1.582610        -1.984938
 H         2.114564         2.908306         0.877121
