19
Iteration:  2010charge 0 multiplicity 1
 C         0.023557        -0.729689         0.650900
 C         1.471388        -0.205419         0.260489
 C         2.833065        -0.046524         0.854694
 C         3.481993        -0.879580        -0.225523
 C         2.255706        -0.451422        -1.194293
 O         2.146171        -1.353382        -2.321767
 C         2.401741         1.083273        -1.337786
 C         2.014429         1.157625         0.133640
 O         1.656285         2.340140         0.781900
 H        -0.174421        -0.409895         1.696999
 H        -0.735242        -0.391278        -0.030783
 H        -0.013923        -1.744807         0.857384
 H         3.070600         0.216448         1.919749
 H         4.574403        -0.794810        -0.390030
 H         3.264579        -1.904335        -0.099176
 H         1.551225        -1.090150        -3.106367
 H         3.438783         1.275592        -1.665897
 H         1.684150         1.528885        -2.037297
 H         2.375692         2.954892         0.898265
