19
Iteration:  1289
 C        -0.002808        -0.605573         0.516999
 C         1.282484        -0.135699         0.015113
 C         2.627512        -0.000609         0.843709
 C         3.373467        -0.944792        -0.073205
 C         2.338343        -0.473150        -1.162032
 O         1.997358        -1.310132        -2.246245
 C         2.612455         0.960749        -1.389779
 C         2.207540         1.194218         0.085810
 O         1.835420         2.292900         0.951991
 H        -0.207161        -0.239594         1.478723
 H        -0.775210        -0.526395        -0.194266
 H        -0.001114        -1.731389         0.627534
 H         2.798624         0.210398         1.914285
 H         4.456694        -0.804604        -0.321367
 H         3.266686        -1.970977         0.301121
 H         2.815270        -1.262777        -2.764080
 H         3.673687         0.999291        -1.646094
 H         2.021840         1.498654        -2.204631
 H         1.016261         2.734312         0.593354
