19
Iteration:  2275
 C         0.118567        -0.612810         0.509442
 C         1.505058        -0.281867         0.209762
 C         2.752541        -0.100001         0.860662
 C         3.494562        -0.788670        -0.297460
 C         2.330488        -0.443518        -1.202319
 O         2.023155        -1.337558        -2.154378
 C         2.420209         1.164543        -1.356845
 C         2.156921         1.105079         0.151272
 O         1.591798         2.213284         0.792355
 H        -0.476158         0.303238         0.956299
 H        -0.542694        -0.810751        -0.365662
 H         0.018098        -1.359427         1.324852
 H         3.039412        -0.249169         1.928819
 H         4.459990        -0.356122        -0.624510
 H         3.648037        -1.870535        -0.053872
 H         1.069185        -1.321120        -2.519460
 H         3.440789         1.420084        -1.718483
 H         1.478950         1.680580        -1.768600
 H         2.343818         2.601910         1.249301
