19
Iteration:  3677
 C        -0.000027        -0.648350         0.511948
 C         1.359947        -0.177241         0.181212
 C         2.717705        -0.134997         0.786735
 C         3.430023        -0.936120        -0.344869
 C         2.317555        -0.363613        -1.239853
 O         1.974273        -1.131332        -2.465433
 C         2.410913         1.108685        -1.192388
 C         2.142088         1.100158         0.224819
 O         1.929903         2.178136         1.077955
 H        -0.302316        -0.349892         1.550795
 H        -0.783269        -0.381736        -0.207525
 H         0.052859        -1.724580         0.583244
 H         3.076799        -0.394481         1.815009
 H         4.551419        -0.663087        -0.687179
 H         3.318205        -2.026014        -0.011433
 H         1.464625        -1.942562        -2.141869
 H         3.334558         1.552530        -1.581011
 H         1.560218         1.443913        -1.827706
 H         2.383529         2.931919         0.687812
