19
Iteration:  2395
 C         0.175819        -0.782815         0.585508
 C         1.380581        -0.121241         0.111734
 C         2.793556         0.126593         0.796991
 C         3.408862        -0.978121        -0.209596
 C         2.322505        -0.504577        -1.128804
 O         2.004835        -1.223303        -2.232570
 C         2.604811         0.986932        -1.264853
 C         2.085484         1.235536         0.087717
 O         1.607029         2.281040         0.726106
 H        -0.166412        -0.291367         1.555321
 H        -0.767705        -0.573826         0.056274
 H         0.351086        -1.853012         0.530186
 H         2.932705         0.071805         1.836174
 H         4.455030        -0.852529        -0.528704
 H         3.397181        -2.045901         0.103151
 H         1.078823        -1.269349        -2.303403
 H         3.580198         1.411591        -1.408781
 H         1.856249         1.330066        -2.052047
 H         1.891481         2.180736         1.671836
