19
Iteration:   330charge 0 multiplicity 1
 C        -0.227598        -0.344845         0.455919
 C         1.230279        -0.131001         0.029709
 C         2.437309        -0.185923         0.910960
 C         3.308464        -1.114145         0.044917
 C         2.490545        -0.517385        -1.206947
 O         2.382088        -1.322920        -2.321942
 C         2.696459         1.026422        -1.169071
 C         2.049738         1.121362         0.144637
 O         1.903055         2.337600         0.758865
 H        -0.560808         0.244929         1.347573
 H        -0.827798        -0.120935        -0.365604
 H        -0.395139        -1.483813         0.505952
 H         2.384171        -0.275394         1.992614
 H         4.407582        -0.894192         0.094238
 H         3.102398        -2.175064         0.125215
 H         1.591169        -1.115309        -2.780832
 H         3.689874         1.373749        -1.358244
 H         2.151035         1.544500        -1.997979
 H         1.750026         2.978027         0.038012
