19
Iteration:  1777charge 0 multiplicity 1
 C         0.083151        -0.812909         0.616922
 C         1.405783        -0.180133         0.203663
 C         2.774862        -0.145821         0.831231
 C         3.487646        -0.802535        -0.228307
 C         2.310113        -0.384336        -1.110886
 O         1.997355        -1.335495        -2.142181
 C         2.466819         1.097812        -1.350264
 C         2.060612         1.145568         0.108164
 O         1.663728         2.353834         0.664898
 H        -0.210947        -0.504591         1.587210
 H        -0.661824        -0.483164        -0.174252
 H         0.143815        -1.943572         0.667948
 H         3.088454        -0.016748         1.901911
 H         4.516065        -0.544105        -0.475235
 H         3.399893        -1.930992        -0.197533
 H         1.835988        -0.969707        -2.998786
 H         3.545701         1.329106        -1.458521
 H         1.831028         1.655692        -2.037938
 H         2.515463         2.673854         1.087794
