19
Iteration:  4520charge 0 multiplicity 1
 C         0.009381        -0.460248         0.446105
 C         1.392939        -0.087506         0.052341
 C         2.723273        -0.151241         0.914963
 C         3.403785        -1.104709        -0.070430
 C         2.409396        -0.516537        -1.107020
 O         1.811818        -1.217371        -2.219214
 C         2.678887         1.020281        -1.283343
 C         2.114051         1.104095         0.141856
 O         1.815330         2.319839         0.735204
 H        -0.754399        -0.636755        -0.371768
 H        -0.138958        -1.369302         1.052688
 H        -0.368821         0.336370         1.131516
 H         2.875962        -0.064830         1.922637
 H         4.437097        -0.864776        -0.321551
 H         3.258456        -2.140540         0.347021
 H         2.460096        -1.594729        -2.855508
 H         3.728521         1.344415        -1.389172
 H         1.962232         1.272979        -2.005866
 H         1.381390         3.000154         0.214005
