19
Iteration:  3400charge 0 multiplicity 1
 C         0.045249        -0.804953         0.508703
 C         1.371087        -0.233000         0.166023
 C         2.813568        -0.140194         0.766308
 C         3.408900        -0.853480        -0.423881
 C         2.203799        -0.367303        -1.219694
 O         2.009307        -1.178702        -2.274531
 C         2.392070         1.259479        -1.239441
 C         2.069594         1.084160         0.197609
 O         2.036758         2.194117         1.057165
 H        -0.280541        -0.454824         1.486604
 H        -0.688752        -0.812662        -0.292984
 H        -0.021360        -1.876349         0.810290
 H         3.093689        -0.319779         1.815191
 H         4.343621        -0.446524        -0.862876
 H         3.493618        -1.979176        -0.384512
 H         1.313311        -0.792426        -2.894735
 H         3.351063         1.691011        -1.546647
 H         1.611924         1.711037        -1.857908
 H         1.068821         2.269380         1.256749
