19
Iteration:   143
 C        -0.085027        -0.263701         0.514313
 C         1.265364        -0.096125        -0.042077
 C         2.477909        -0.093836         0.857332
 C         3.257659        -1.089059         0.018104
 C         2.358156        -0.527067        -1.133738
 O         2.293437        -1.231110        -2.314973
 C         2.888757         0.981781        -1.219627
 C         2.092800         1.104985         0.006682
 O         1.650051         2.175542         0.766431
 H        -0.270145         0.303050         1.399479
 H        -0.892524        -0.140570        -0.159887
 H        -0.256681        -1.338853         0.739397
 H         2.441535         0.139357         1.947756
 H         4.327141        -0.993635        -0.079322
 H         2.936183        -2.086481         0.360364
 H         2.378298        -2.169117        -2.079666
 H         3.943154         1.104462        -1.026976
 H         2.598926         1.555821        -2.110496
 H         2.287452         2.881244         0.871631
