19
Iteration:  1856
 C         0.091916        -0.583972         0.640053
 C         1.376912        -0.144592         0.172029
 C         2.834530        -0.064257         0.820021
 C         3.533944        -0.866845        -0.297091
 C         2.238893        -0.459506        -1.139640
 O         2.069363        -1.408892        -2.245398
 C         2.445726         1.036022        -1.367858
 C         2.103785         1.128699         0.186806
 O         1.557787         2.268492         0.826556
 H        -0.355196        -0.042887         1.579576
 H        -0.799933        -0.599188        -0.077059
 H         0.351982        -1.608233         0.879791
 H         3.096243        -0.045617         1.855810
 H         4.539175        -0.410272        -0.615635
 H         3.553660        -1.905631        -0.074982
 H         2.333795        -1.047224        -3.071170
 H         3.460902         1.341262        -1.757040
 H         1.628957         1.613937        -1.805812
 H         2.295114         2.965229         0.731187
