19
Iteration:  1103
 C        -0.112752        -0.682241         0.398110
 C         1.273299        -0.063816         0.190800
 C         2.574330        -0.275897         0.976423
 C         3.305517        -1.079355        -0.030242
 C         2.378411        -0.464474        -1.126681
 O         2.194793        -1.099243        -2.335093
 C         2.531393         1.013416        -1.305801
 C         2.105475         1.133086         0.156144
 O         1.989232         2.487529         0.649418
 H        -0.533410        -0.147098         1.194563
 H        -0.638959        -0.486631        -0.594245
 H        -0.138559        -1.792574         0.405095
 H         2.800688        -0.163418         2.035808
 H         4.377483        -0.897098        -0.213402
 H         3.415211        -2.165954         0.195484
 H         2.071573        -2.029820        -2.118700
 H         3.511181         1.366381        -1.616332
 H         1.566931         1.224991        -1.898789
 H         1.625639         2.499538         1.578039
