19
Iteration:  3703charge 0 multiplicity 1
 C        -0.030075        -0.508051         0.531377
 C         1.384829        -0.250668         0.183860
 C         2.798085        -0.218732         0.800654
 C         3.449248        -0.954365        -0.362658
 C         2.226205        -0.385670        -1.186593
 O         1.952718        -1.107552        -2.388161
 C         2.429110         1.115353        -1.328114
 C         2.163336         1.094444         0.116563
 O         1.842460         2.123824         1.162447
 H        -0.189000         0.183219         1.349255
 H        -0.805551        -0.548967        -0.284838
 H        -0.093715        -1.406939         1.225362
 H         3.063997        -0.301928         1.822482
 H         4.617274        -0.614244        -0.683636
 H         3.414446        -2.032937        -0.196214
 H         2.821913        -1.505159        -2.715595
 H         3.384381         1.485688        -1.671791
 H         1.561360         1.384038        -1.928902
 H         2.104853         2.957683         0.751949
