19
Iteration:  4001charge 0 multiplicity 1
 C        -0.088297        -0.581440         0.428665
 C         1.340523        -0.132140         0.089636
 C         2.673012        -0.178162         0.828045
 C         3.388390        -0.961295        -0.201217
 C         2.275728        -0.500822        -1.159396
 O         1.949083        -1.147520        -2.366865
 C         2.579653         1.140926        -1.274558
 C         2.140570         1.127944         0.208691
 O         1.985815         2.255280         0.943044
 H        -0.062693        -1.575682         0.986431
 H        -0.628271         0.137092         1.129070
 H        -0.795207        -0.712472        -0.461671
 H         2.754104        -0.324651         1.893289
 H         4.454422        -0.758680        -0.652569
 H         3.229062        -2.041319        -0.128170
 H         1.857302        -2.082257        -2.088740
 H         3.649771         1.504454        -1.477674
 H         1.844836         1.487594        -1.994554
 H         2.683344         2.243666         1.643808
