19
Iteration:   656charge 0 multiplicity 1
 C        -0.086136        -0.631968         0.222455
 C         1.344032        -0.165491         0.152819
 C         2.572547        -0.209742         1.007221
 C         3.422648        -1.091333        -0.019314
 C         2.356955        -0.510986        -1.056216
 O         2.104346        -1.134399        -2.328445
 C         2.563122         0.960088        -1.259605
 C         2.034701         1.141486         0.248419
 O         1.999214         2.555051         0.666949
 H        -0.663664        -0.178242         0.990758
 H        -0.718644        -0.185892        -0.611722
 H        -0.495711        -1.622204         0.169174
 H         2.507014        -0.397145         2.083933
 H         4.475822        -0.745728        -0.170305
 H         3.391717        -2.202699         0.192508
 H         2.176808        -2.094850        -2.531723
 H         3.579951         1.322415        -1.467248
 H         1.824137         1.416713        -1.961337
 H         1.444028         2.638733         1.448460
