19
Iteration:  1034charge 0 multiplicity 1
 C        -0.053724        -0.379178         0.329030
 C         1.403605        -0.148369         0.050430
 C         2.682489        -0.084141         0.869766
 C         3.420190        -0.996775        -0.026704
 C         2.360381        -0.503753        -1.156679
 O         2.023108        -1.186514        -2.244865
 C         2.690283         0.976990        -1.342363
 C         2.191144         1.106904         0.163828
 O         1.596825         2.149871         0.871077
 H        -0.201832         0.185165         1.245138
 H        -0.592790         0.051210        -0.425451
 H        -0.278723        -1.472076         0.331643
 H         2.834121        -0.042226         1.966212
 H         4.522363        -0.798278        -0.213444
 H         3.375766        -2.023436         0.143513
 H         1.942415        -2.132126        -1.884198
 H         3.764751         1.170025        -1.488758
 H         2.002805         1.527067        -1.953154
 H         2.032183         3.029348         0.721478
