19
Iteration:  1305charge 0 multiplicity 1
 C         0.081834        -0.695236         0.496819
 C         1.387995        -0.087665         0.036340
 C         2.644070        -0.033131         0.928573
 C         3.362340        -0.971912        -0.033195
 C         2.351468        -0.513234        -1.132178
 O         1.891698        -1.237244        -2.258183
 C         2.700164         1.074402        -1.354944
 C         2.084692         1.149950         0.073754
 O         1.818186         2.269773         0.823335
 H        -0.158807        -0.132471         1.483833
 H        -0.788644        -0.505314        -0.279109
 H         0.193178        -1.738050         0.738864
 H         2.496760        -0.121725         1.994266
 H         4.445283        -0.833091        -0.106126
 H         3.088663        -2.058765         0.199473
 H         2.600306        -1.669221        -2.686423
 H         3.628493         1.667405        -1.685764
 H         1.893768         1.389343        -1.994341
 H         1.549031         2.976531         0.223951
