19
Iteration:  4138
 C        -0.143919        -0.263090         0.471242
 C         1.328535        -0.063164         0.085397
 C         2.714703        -0.228414         0.864342
 C         3.409313        -1.001752        -0.184819
 C         2.315808        -0.526247        -1.281622
 O         2.077419        -1.251359        -2.310893
 C         2.544825         1.091034        -1.333684
 C         2.198569         1.087330         0.081428
 O         1.825176         2.175394         1.015314
 H        -0.847862        -0.629733        -0.374323
 H        -0.068618        -1.077535         1.254333
 H        -0.553740         0.676182         0.941109
 H         3.061886        -0.197681         1.861767
 H         4.382684        -0.754121        -0.583010
 H         3.373152        -2.143303         0.027107
 H         1.825526        -2.185958        -2.102316
 H         3.581738         1.293409        -1.509197
 H         1.713517         1.617453        -1.915867
 H         2.337001         2.042304         1.806715
