19
Iteration:  4105charge 0 multiplicity 1
 C        -0.096068        -0.394057         0.421852
 C         1.406077        -0.236808         0.053261
 C         2.707977        -0.213853         0.928391
 C         3.411914        -0.996391        -0.194389
 C         2.312761        -0.495044        -1.231396
 O         1.981735        -1.196212        -2.334806
 C         2.596737         1.028355        -1.245404
 C         2.200795         1.118049         0.218503
 O         1.827611         2.263172         0.895651
 H        -0.710512        -0.993474        -0.305024
 H        -0.166580        -0.944495         1.400511
 H        -0.572014         0.622693         0.617679
 H         2.702511        -0.399423         1.951382
 H         4.442412        -0.800480        -0.419349
 H         3.373819        -2.056469         0.191524
 H         1.023581        -1.370630        -2.486214
 H         3.548290         1.383591        -1.597775
 H         1.931680         1.668363        -1.847551
 H         2.658414         2.664061         1.218612
