19
Iteration:  1412
 C        -0.018215        -0.449891         0.514583
 C         1.328468        -0.141760         0.067274
 C         2.687396        -0.040250         0.928749
 C         3.424722        -0.803737        -0.193497
 C         2.323188        -0.509478        -1.234358
 O         2.153700        -1.482949        -2.238016
 C         2.522194         1.104110        -1.353852
 C         2.124050         1.131740         0.136242
 O         1.757734         2.260230         0.840027
 H        -0.279460         0.128247         1.384714
 H        -0.823075        -0.112359        -0.163436
 H        -0.078791        -1.578691         0.666764
 H         2.947377        -0.172845         1.964274
 H         4.381143        -0.395069        -0.490874
 H         3.445014        -1.962438        -0.096043
 H         1.386950        -1.991397        -2.091039
 H         3.550706         1.235896        -1.714320
 H         1.768484         1.484652        -2.098169
 H         2.081010         2.010440         1.729412
