19
Iteration:   491
 C        -0.126304        -0.681376         0.303450
 C         1.263946         0.049924        -0.090966
 C         2.405574        -0.109879         0.849277
 C         3.265443        -1.029635        -0.004441
 C         2.365141        -0.450819        -1.132577
 O         2.055272        -1.315516        -2.201740
 C         2.836913         1.012876        -1.220798
 C         2.248446         1.187910         0.165590
 O         1.866186         2.361959         0.801775
 H        -0.350466        -0.323353         1.303656
 H        -1.088626        -0.443238        -0.311088
 H         0.000476        -1.789901         0.325759
 H         2.381550        -0.122520         1.922929
 H         4.293721        -0.706595        -0.057345
 H         3.115514        -2.147348         0.096435
 H         2.802395        -1.851844        -2.381830
 H         3.864833         1.416654        -1.392242
 H         2.224448         1.545727        -1.928903
 H         2.556975         2.510968         1.492917
