19
Iteration:  3616charge 0 multiplicity 1
 C         0.109566        -0.832907         0.429590
 C         1.395125        -0.235417         0.147513
 C         2.880903        -0.065460         0.816380
 C         3.448370        -1.042690        -0.287570
 C         2.211255        -0.440229        -1.198379
 O         1.672624        -1.065012        -2.331616
 C         2.599043         1.161619        -1.275126
 C         2.193929         1.218001         0.247319
 O         1.779299         2.272887         0.969615
 H         0.253702        -1.167334         1.450824
 H        -0.786856        -0.156536         0.356856
 H        -0.052956        -1.786718        -0.164559
 H         2.987358        -0.004615         1.877939
 H         4.408523        -0.885700        -0.628725
 H         3.458007        -2.027040         0.091758
 H         2.420340        -1.097033        -2.990749
 H         3.685889         1.307076        -1.556153
 H         1.871952         1.622272        -1.958687
 H         2.108194         2.296584         1.867726
