19
Iteration:  1635charge 0 multiplicity 1
 C         0.029486        -0.529328         0.668356
 C         1.407373        -0.237627         0.112193
 C         2.801238        -0.015205         0.850185
 C         3.505559        -0.938659        -0.079460
 C         2.404026        -0.550193        -1.212509
 O         1.953109        -1.333540        -2.296018
 C         2.526729         1.140608        -1.356279
 C         2.035685         1.056564         0.049312
 O         1.671475         2.321368         0.760733
 H        -0.008631        -0.140734         1.724088
 H        -0.794496        -0.152719        -0.049419
 H        -0.158053        -1.569002         0.844527
 H         2.953398         0.237839         1.884031
 H         4.555544        -0.782178        -0.388051
 H         3.532120        -1.952393         0.335563
 H         2.547117        -1.096290        -3.006774
 H         3.546116         1.602505        -1.505961
 H         1.848861         1.547757        -2.069195
 H         1.117861         1.953855         1.515928
