19
Iteration:  1440
 C        -0.077499        -0.371398         0.562288
 C         1.355529        -0.294172         0.148655
 C         2.770932        -0.099417         0.863876
 C         3.556096        -0.937030        -0.187793
 C         2.340855        -0.512433        -1.171054
 O         2.157459        -1.328253        -2.245303
 C         2.483675         1.056701        -1.281084
 C         2.107354         1.081132         0.139259
 O         1.628100         2.311491         0.719198
 H        -0.232992         0.239813         1.478854
 H        -0.757975         0.171983        -0.085514
 H        -0.436301        -1.391577         0.697096
 H         3.157218        -0.092836         1.902586
 H         4.542660        -0.443868        -0.518901
 H         3.651935        -1.961830        -0.085879
 H         1.242554        -1.475837        -2.587938
 H         3.503349         1.178153        -1.634373
 H         1.765280         1.178770        -2.066861
 H         2.212201         2.351814         1.535297
