19
Iteration:  3019charge 0 multiplicity 1
 C         0.227303        -0.842365         0.528504
 C         1.447749        -0.212801         0.151322
 C         2.888371        -0.096332         0.859183
 C         3.577508        -0.951927        -0.161397
 C         2.328497        -0.433153        -1.201833
 O         1.694341        -0.993318        -2.320720
 C         2.581860         1.156765        -1.332933
 C         2.046688         1.119374         0.094147
 O         1.586133         2.201016         0.904115
 H        -0.612974        -0.121737         0.659992
 H        -0.165961        -1.593962        -0.202721
 H         0.499232        -1.421331         1.415612
 H         3.079966         0.223605         1.899069
 H         4.532765        -0.604155        -0.526562
 H         3.316919        -1.938788         0.103130
 H         1.343776        -1.885762        -2.020526
 H         3.642261         1.327517        -1.666407
 H         2.001663         1.591827        -2.196720
 H         2.342345         2.804866         1.065740
