19
Iteration:  2501
 C         0.124318        -0.544653         0.566512
 C         1.416655        -0.171211         0.079014
 C         2.684402        -0.002815         0.848094
 C         3.550390        -0.862550        -0.110321
 C         2.405815        -0.591762        -1.146998
 O         1.994584        -1.356852        -2.243602
 C         2.404167         1.056850        -1.358183
 C         2.062376         1.154563         0.088690
 O         1.659840         2.202830         0.871839
 H         0.080361        -0.589140         1.717968
 H        -0.661415         0.034277         0.049134
 H        -0.149450        -1.623629         0.429613
 H         2.664401         0.139765         1.905969
 H         4.519273        -0.457831        -0.554023
 H         3.587583        -1.928697         0.163200
 H         2.282832        -0.843133        -2.974609
 H         3.402559         1.571272        -1.699668
 H         1.603161         1.219768        -2.105509
 H         2.075340         3.039887         0.531459
