19
Iteration:  4638charge 0 multiplicity 1
 C        -0.095914        -0.498235         0.366899
 C         1.389355        -0.165717         0.162471
 C         2.693339        -0.056155         0.865200
 C         3.425893        -0.950728        -0.129603
 C         2.302196        -0.522460        -1.123187
 O         1.912651        -1.242027        -2.184503
 C         2.646387         0.989873        -1.286712
 C         2.121328         1.163953         0.119093
 O         1.923236         2.299015         0.800454
 H        -0.825219         0.230210        -0.036125
 H        -0.402854        -1.449226        -0.146568
 H        -0.285603        -0.755010         1.434083
 H         2.919206        -0.240295         1.892235
 H         4.574878        -0.853600        -0.169310
 H         3.179185        -1.900412         0.244685
 H         2.194584        -2.147660        -2.015054
 H         3.722098         1.095650        -1.679892
 H         1.915200         1.249256        -2.085733
 H         1.505313         2.912335         0.132585
