19
Iteration:  2102charge 0 multiplicity 1
 C         0.021759        -0.727573         0.569786
 C         1.400220        -0.144206         0.071955
 C         3.007601         0.057405         0.832720
 C         3.451622        -0.860733        -0.349568
 C         2.286018        -0.383944        -1.185647
 O         2.042434        -1.424034        -2.124184
 C         2.494420         1.154765        -1.306841
 C         2.157162         1.124717         0.162426
 O         1.570818         2.231846         0.787786
 H        -0.388905        -0.029283         1.293700
 H        -0.661009        -0.681010        -0.295085
 H        -0.121697        -1.723984         1.034498
 H         3.307315        -0.142886         1.846310
 H         4.523388        -0.816053        -0.576574
 H         3.252871        -1.952783         0.010711
 H         1.176643        -1.219786        -2.417348
 H         3.432754         1.589173        -1.632438
 H         1.698601         1.462988        -2.011616
 H         1.804367         2.513145         1.699307
