19
Iteration:  3844
 C        -0.004026        -0.809403         0.421983
 C         1.333641        -0.175760         0.137591
 C         2.644444        -0.221535         0.908791
 C         3.374768        -0.901099        -0.266392
 C         2.207854        -0.382946        -1.209443
 O         1.975741        -1.181265        -2.317719
 C         2.499964         1.140816        -1.283771
 C         2.147118         1.167439         0.191565
 O         2.052032         2.282562         0.997215
 H        -0.543670        -0.512451         1.309705
 H        -0.548602        -0.550596        -0.500679
 H        -0.070539        -1.904800         0.590653
 H         2.676581        -0.251408         2.043785
 H         4.300708        -0.717412        -0.649687
 H         3.211538        -1.959852        -0.170882
 H         1.317983        -0.721060        -2.890159
 H         3.562866         1.547962        -1.348826
 H         1.865837         1.723194        -1.996179
 H         3.000680         2.488566         1.054362
