19
Iteration:  1046charge 0 multiplicity 1
 C        -0.113400        -0.417644         0.387312
 C         1.333864        -0.028533         0.078409
 C         2.612824        -0.165643         0.903334
 C         3.510645        -0.993449        -0.093540
 C         2.389535        -0.472331        -1.080988
 O         2.024525        -1.232962        -2.258471
 C         2.800937         0.986065        -1.373447
 C         2.174023         1.197007         0.025064
 O         1.603309         2.125530         0.916580
 H        -0.549145        -0.112893         1.312182
 H        -0.769419        -0.048125        -0.329793
 H        -0.294932        -1.525416         0.453743
 H         2.657255         0.164545         1.965991
 H         4.541567        -0.707248        -0.380287
 H         3.390927        -2.010584         0.181659
 H         1.812358        -2.160044        -2.015882
 H         3.841030         1.181652        -1.551387
 H         2.301622         1.366143        -2.270013
 H         2.176855         2.876018         1.060982
