19
Iteration:  4361
 C         0.018846        -0.332457         0.485388
 C         1.366867        -0.110256         0.074549
 C         2.679714        -0.164250         0.898262
 C         3.373211        -1.141388        -0.198344
 C         2.367647        -0.530722        -1.121437
 O         1.999221        -1.304653        -2.257085
 C         2.673879         0.962958        -1.329266
 C         2.199767         1.142665         0.180301
 O         1.771356         2.353530         0.850996
 H         0.027780        -1.227669         1.147557
 H        -0.467204         0.581380         0.975182
 H        -0.665144        -0.495947        -0.428448
 H         2.816709        -0.146269         1.909647
 H         4.446202        -0.901384        -0.331641
 H         3.144261        -2.144677         0.146572
 H         1.356626        -0.739992        -2.756113
 H         3.642574         1.222606        -1.651088
 H         2.078334         1.476144        -2.045444
 H         0.801739         2.242335         0.772334
