19
Iteration:  1681charge 0 multiplicity 1
 C         0.116609        -0.607908         0.551577
 C         1.463028        -0.153789         0.165576
 C         2.729033        -0.133116         0.923204
 C         3.515248        -0.880248        -0.182384
 C         2.320853        -0.506016        -1.119785
 O         1.891613        -1.330503        -2.311868
 C         2.517619         1.083873        -1.323206
 C         2.179818         1.207484         0.177562
 O         1.652977         2.343661         0.710319
 H        -0.096194        -0.124067         1.595172
 H        -0.609827        -0.460610        -0.312859
 H         0.061395        -1.658505         0.825059
 H         2.938251        -0.295986         2.006114
 H         4.536273        -0.457105        -0.480926
 H         3.673064        -1.927977        -0.196723
 H         2.495725        -2.142504        -2.322937
 H         3.453675         1.572138        -1.742708
 H         1.664510         1.522808        -1.931309
 H         0.718482         2.215999         0.982214
