19
Iteration:  3867charge 0 multiplicity 1
 C        -0.013728        -0.688402         0.392675
 C         1.336860        -0.123705         0.059247
 C         2.716571        -0.189258         0.839227
 C         3.448434        -1.020342        -0.236135
 C         2.312897        -0.454179        -1.173890
 O         1.925146        -1.093711        -2.378126
 C         2.483239         1.081866        -1.214427
 C         2.211421         1.177984         0.245358
 O         1.897429         2.286351         0.985264
 H        -0.070503        -0.763756         1.472924
 H        -0.866711        -0.195403        -0.126292
 H        -0.130460        -1.820476         0.322124
 H         2.942716        -0.220387         1.950257
 H         4.468427        -0.845406        -0.332006
 H         3.166274        -2.028491        -0.093629
 H         0.984143        -1.312868        -2.368782
 H         3.490668         1.364468        -1.669114
 H         1.727831         1.445379        -1.936416
 H         2.839469         2.468916         1.231818
