19
Iteration:  4454
 C        -0.120355        -0.645090         0.336899
 C         1.307287        -0.152321         0.077706
 C         2.647371        -0.047175         0.853674
 C         3.317504        -0.971502        -0.056153
 C         2.334213        -0.485063        -1.130450
 O         2.030443        -1.354488        -2.145421
 C         2.552164         1.035871        -1.385104
 C         2.114847         1.188498         0.128386
 O         2.170452         2.385268         0.886100
 H        -0.410328        -1.380169        -0.465647
 H        -0.406191        -1.046823         1.322974
 H        -0.589115         0.343206         0.356486
 H         2.714513        -0.287232         1.930409
 H         4.417326        -0.845969        -0.277996
 H         3.079614        -2.065918         0.232536
 H         1.143586        -1.174427        -2.500181
 H         3.596110         1.320281        -1.776417
 H         1.810961         1.412365        -2.136475
 H         1.273394         2.726598         0.683281
