19
Iteration:   678
 C        -0.130468        -0.727661         0.330565
 C         1.253747        -0.100325         0.065713
 C         2.479605        -0.136668         0.951456
 C         3.242846        -0.942234        -0.068833
 C         2.310582        -0.406747        -1.097298
 O         2.171406        -1.164743        -2.310596
 C         2.680088         0.992210        -1.146246
 C         2.188405         1.134255         0.205256
 O         2.074566         2.389088         0.657384
 H        -0.578910        -0.488593         1.273284
 H        -1.020502        -0.659547        -0.388676
 H        -0.065590        -1.799636         0.391307
 H         2.641788        -0.053105         2.019666
 H         4.328076        -0.689402        -0.225287
 H         3.128524        -2.060254         0.027677
 H         2.159294        -2.111900        -2.171408
 H         3.736838         1.219960        -1.332194
 H         1.994752         1.545424        -1.838359
 H         1.118036         2.341782         0.912384
