19
Iteration:  3923charge 0 multiplicity 1
 C        -0.029505        -0.377604         0.543221
 C         1.450233        -0.207260         0.058845
 C         2.787101        -0.169929         0.830279
 C         3.458592        -1.028450        -0.346743
 C         2.322067        -0.485906        -1.223061
 O         1.812056        -1.149874        -2.301444
 C         2.709814         1.094960        -1.263618
 C         2.236854         1.082269         0.241943
 O         1.585338         2.137049         1.014269
 H        -0.175191        -0.613172         1.610701
 H        -0.604601         0.590094         0.615996
 H        -0.667617        -0.990655        -0.175560
 H         2.840274        -0.535235         1.827099
 H         4.477717        -0.768591        -0.589611
 H         3.555304        -2.067595        -0.148653
 H         2.566810        -1.303798        -2.893478
 H         3.744880         1.285589        -1.694011
 H         1.955653         1.552737        -1.907936
 H         2.371031         2.725061         0.977004
