19
Iteration:  3149
 C         0.196118        -0.647449         0.625830
 C         1.537024        -0.326315         0.137111
 C         2.829011        -0.130624         0.769398
 C         3.498724        -0.917736        -0.417249
 C         2.310504        -0.391740        -1.231076
 O         1.788045        -1.121001        -2.215397
 C         2.560145         1.224301        -1.289100
 C         2.166795         1.157768         0.209999
 O         1.506754         2.103398         0.956943
 H        -0.495546        -0.614848        -0.236232
 H         0.096879        -1.605871         1.014404
 H        -0.230391         0.125729         1.258676
 H         3.016212        -0.345826         1.805520
 H         4.542321        -0.913151        -0.949072
 H         3.424417        -2.043152        -0.282243
 H         2.508260        -1.662701        -2.516668
 H         3.461474         1.699500        -1.500571
 H         1.697128         1.569305        -1.797191
 H         1.727726         3.024821         0.797468
