19
Iteration:   401charge 0 multiplicity 1
 C        -0.111934        -0.272500         0.165295
 C         1.349960        -0.270511         0.024263
 C         2.602572        -0.118078         0.936478
 C         3.441289        -0.970091        -0.014175
 C         2.435747        -0.561079        -1.102237
 O         2.047339        -1.308935        -2.181445
 C         2.699750         0.923941        -1.209633
 C         2.107894         1.044908         0.202730
 O         1.799880         2.318368         0.799912
 H        -0.255638         0.494587         0.959449
 H        -0.648926         0.042304        -0.854021
 H        -0.525401        -1.232196         0.379510
 H         2.377438        -0.194720         1.993877
 H         4.492351        -0.732303        -0.137336
 H         3.255142        -2.013163         0.366667
 H         2.240281        -0.764965        -2.918650
 H         3.765814         1.286081        -1.302718
 H         2.197350         1.551375        -1.919175
 H         0.909735         2.650996         0.623059
