19
Iteration:  2618charge 0 multiplicity 1
 C        -0.025521        -0.866697         0.441515
 C         1.317616        -0.251854         0.129927
 C         2.731268        -0.054033         0.841677
 C         3.487985        -0.790064        -0.266616
 C         2.331463        -0.413206        -1.194955
 O         2.119456        -1.463625        -2.186040
 C         2.403292         1.139698        -1.323895
 C         2.088256         1.174575         0.204716
 O         1.850852         2.482728         0.929379
 H        -0.796123        -0.161762         0.441536
 H        -0.214857        -1.643385        -0.365130
 H        -0.216135        -1.176456         1.489510
 H         2.832989        -0.047040         1.908542
 H         4.411278        -0.367625        -0.679343
 H         3.543267        -1.882499        -0.213965
 H         1.208892        -1.692011        -2.360258
 H         3.342401         1.397849        -1.881297
 H         1.460787         1.446029        -1.788544
 H         2.556827         3.133012         0.687400
