19
Iteration:  4937
 C        -0.027101        -0.549536         0.447499
 C         1.347121        -0.112488         0.140293
 C         2.643635        -0.146564         0.888310
 C         3.368565        -0.981398        -0.110099
 C         2.312485        -0.485112        -1.089900
 O         2.030198        -1.321268        -2.170207
 C         2.583877         1.008627        -1.288953
 C         2.202834         1.121224         0.112962
 O         1.895718         2.375723         0.747968
 H        -0.827317         0.177394         0.139406
 H        -0.312820        -1.385681        -0.187636
 H        -0.264962        -0.706289         1.487611
 H         2.834341         0.092878         1.914817
 H         4.511048        -1.146870        -0.325828
 H         3.028806        -2.060228        -0.025106
 H         1.278246        -1.159771        -2.740334
 H         3.686684         1.268054        -1.513669
 H         1.896367         1.345400        -2.082560
 H         1.847065         3.017045         0.009582
