19
Iteration:  1329
 C         0.079842        -0.790111         0.426030
 C         1.363714        -0.152360         0.062740
 C         2.691895        -0.121708         0.883371
 C         3.433268        -1.059699        -0.109541
 C         2.355782        -0.480872        -1.111590
 O         1.844148        -1.144782        -2.172033
 C         2.681313         1.056776        -1.229779
 C         2.096935         1.159434         0.196172
 O         1.739769         2.472860         0.689746
 H        -0.275396        -0.159574         1.320353
 H        -0.609450        -0.719896        -0.468683
 H         0.089522        -1.885542         0.786867
 H         2.783741        -0.092828         1.971862
 H         4.571202        -0.992455        -0.246333
 H         3.139550        -2.078041         0.026342
 H         2.317980        -1.972166        -2.453816
 H         3.756591         1.280150        -1.588489
 H         2.051939         1.646264        -1.863698
 H         2.047213         2.971813        -0.061017
