19
Iteration:  4255
 C        -0.074064        -0.670692         0.303096
 C         1.382419        -0.129716         0.054151
 C         2.674159        -0.129912         0.904254
 C         3.302641        -1.061984        -0.081146
 C         2.327203        -0.398734        -1.060033
 O         1.801319        -1.227160        -2.176742
 C         2.736219         1.006029        -1.369816
 C         2.259006         1.163733         0.105835
 O         1.872871         2.392500         0.889247
 H        -0.709980         0.019432         0.824996
 H        -0.468238        -1.007835        -0.598538
 H         0.118971        -1.475578         0.936353
 H         2.724856        -0.083643         1.967652
 H         4.336589        -1.020205        -0.489274
 H         2.937914        -2.038438        -0.005180
 H         2.068806        -0.942078        -3.079646
 H         3.804988         1.156945        -1.506138
 H         2.031180         1.503332        -1.964722
 H         2.728892         2.475847         1.356758
