19
Iteration:  4717charge 0 multiplicity 1
 C        -0.057837        -0.563141         0.478089
 C         1.297369        -0.139031         0.080014
 C         2.661011        -0.027956         0.867742
 C         3.393160        -0.981961        -0.076500
 C         2.271091        -0.583621        -1.133344
 O         1.991763        -1.282719        -2.241092
 C         2.616247         0.911504        -1.293916
 C         2.153267         1.156135         0.140599
 O         2.026941         2.392371         0.789834
 H        -0.641872        -0.697724        -0.506437
 H        -0.237252        -1.425905         1.171666
 H        -0.876026         0.160101         0.872058
 H         2.570339        -0.103169         1.972328
 H         4.527011        -0.880870        -0.288352
 H         3.240632        -2.003179         0.233864
 H         2.087614        -0.751490        -3.032953
 H         3.675039         1.346293        -1.600121
 H         1.978155         1.411185        -2.005903
 H         1.038095         2.497448         0.766755
