19
Iteration:  4660charge 0 multiplicity 1
 C         0.018523        -0.552898         0.368254
 C         1.424667        -0.081928         0.050546
 C         2.668974        -0.086068         0.961331
 C         3.356464        -1.063965        -0.080049
 C         2.298348        -0.557280        -1.131846
 O         1.801065        -1.302190        -2.192769
 C         2.739696         1.053140        -1.341719
 C         2.188767         1.185717         0.159074
 O         1.823816         2.358338         0.822858
 H        -0.818566        -0.080532        -0.163417
 H        -0.127524        -1.645484         0.098946
 H        -0.047779        -0.538873         1.473124
 H         2.824244         0.151213         1.975349
 H         4.417724        -0.660795        -0.323665
 H         3.321847        -2.108497         0.000382
 H         2.311765        -2.106597        -2.447903
 H         3.864344         1.366575        -1.526510
 H         2.023033         1.578535        -2.013106
 H         1.540680         2.959459         0.137115
