19
Iteration:  2566charge 0 multiplicity 1
 C         0.129031        -0.665935         0.649729
 C         1.430786        -0.233169         0.106728
 C         2.799383        -0.064989         0.862976
 C         3.515051        -0.891155        -0.147940
 C         2.434016        -0.487786        -1.148040
 O         1.937828        -1.171755        -2.313896
 C         2.519973         1.037511        -1.380782
 C         2.170835         1.169427         0.101263
 O         1.492727         2.306430         0.751665
 H        -0.492330         0.240353         0.916257
 H        -0.511730        -1.209020        -0.046110
 H         0.123082        -1.383405         1.487611
 H         2.965069        -0.177613         1.885370
 H         4.566746        -0.689742        -0.404842
 H         3.174275        -1.872247         0.146684
 H         1.650750        -2.107292        -2.167774
 H         3.528398         1.243975        -1.688084
 H         1.933045         1.443676        -2.170013
 H         1.838911         2.570820         1.608748
