19
Iteration:  2789
 C         0.032682        -0.698156         0.538723
 C         1.377381        -0.187323         0.130452
 C         2.757999        -0.129257         0.810178
 C         3.553739        -0.799340        -0.278789
 C         2.359684        -0.444442        -1.216409
 O         2.071466        -1.280992        -2.314991
 C         2.265623         1.086740        -1.280852
 C         2.075929         1.144603         0.232274
 O         1.791076         2.296051         0.910247
 H         0.101054        -1.774110         0.859068
 H        -0.384674        -0.232676         1.433115
 H        -0.675837        -0.610457        -0.285681
 H         2.954418        -0.076330         1.856448
 H         4.586888        -0.529824        -0.516175
 H         3.624030        -1.907503        -0.205744
 H         1.557598        -2.129089        -2.154898
 H         3.112355         1.631937        -1.744896
 H         1.318489         1.438284        -1.694589
 H         2.588921         2.850097         0.812537
