19
Iteration:  3173charge 0 multiplicity 1
 C         0.127451        -0.657443         0.580917
 C         1.486387        -0.240834         0.106854
 C         2.915984        -0.097983         0.794952
 C         3.550945        -0.900107        -0.284890
 C         2.357240        -0.431123        -1.250222
 O         1.665235        -1.081075        -2.283036
 C         2.570945         1.143083        -1.295944
 C         2.136983         1.138643         0.225281
 O         1.547922         2.069092         0.985813
 H        -0.469856        -1.235247        -0.134499
 H         0.391574        -1.453026         1.265987
 H        -0.540955         0.082176         0.966051
 H         3.328987        -0.275109         1.807630
 H         4.592921        -0.496233        -0.782524
 H         3.874243        -1.901527         0.036403
 H         2.298464        -1.354047        -2.958923
 H         3.588542         1.375916        -1.423077
 H         1.870731         1.587966        -2.074379
 H         1.542399         2.980196         0.648425
