19
Iteration:   702
 C        -0.050434        -0.680027         0.451904
 C         1.281330        -0.094642        -0.047771
 C         2.488337        -0.070986         0.830158
 C         3.240588        -1.074047         0.033424
 C         2.398095        -0.456716        -1.149674
 O         2.135745        -1.222954        -2.352044
 C         2.795409         1.057003        -1.303334
 C         2.047477         1.247187         0.060432
 O         1.959248         2.364157         0.965222
 H        -0.426765        -0.476039         1.445821
 H        -0.883660        -0.654544        -0.197438
 H         0.146123        -1.784942         0.446899
 H         2.372256        -0.114125         1.902447
 H         4.356709        -1.088006        -0.076664
 H         2.914715        -2.059390         0.333367
 H         1.932596        -2.099133        -2.058709
 H         3.845966         1.193060        -1.361089
 H         2.289772         1.482462        -2.209062
 H         1.193941         2.795482         0.569318
