19
Iteration:  3719charge 0 multiplicity 1
 C         0.016246        -0.431092         0.649064
 C         1.424969        -0.163317         0.062755
 C         2.773128        -0.235922         0.778284
 C         3.497003        -0.935637        -0.370683
 C         2.322139        -0.475289        -1.232088
 O         1.918627        -1.122915        -2.338463
 C         2.444102         1.106608        -1.271093
 C         2.176274         1.024710         0.260494
 O         1.767601         2.061684         1.072294
 H        -0.529454         0.465215         1.006627
 H        -0.553300        -0.558725        -0.265991
 H        -0.155982        -1.371004         1.132517
 H         2.927889        -0.223864         1.897643
 H         4.356465        -0.568162        -0.632008
 H         3.404032        -2.040734        -0.315219
 H         2.446780        -1.005655        -3.159013
 H         3.365973         1.590166        -1.758858
 H         1.594256         1.611452        -1.787025
 H         1.974768         2.958841         0.742050
