19
Iteration:   940
 C        -0.013733        -0.623204         0.492833
 C         1.327285        -0.042612        -0.076983
 C         2.506257        -0.055608         0.870094
 C         3.348661        -1.073387        -0.126535
 C         2.441291        -0.475698        -1.161259
 O         2.078811        -1.299173        -2.251087
 C         2.731285         1.096988        -1.373464
 C         2.077538         1.193052         0.101433
 O         1.771772         2.350399         0.913941
 H        -0.176787         0.026705         1.323107
 H        -0.905638        -0.412972        -0.248632
 H         0.042876        -1.678663         0.721296
 H         2.298387        -0.128230         1.990092
 H         4.389068        -0.926571        -0.272195
 H         3.356817        -2.244338        -0.019101
 H         1.948598        -2.154893        -1.808160
 H         3.819129         1.334992        -1.464396
 H         2.003087         1.505548        -2.163812
 H         2.250602         2.208093         1.723912
