19
Iteration:  4872charge 0 multiplicity 1
 C        -0.095159        -0.547095         0.483134
 C         1.332248        -0.115894         0.093621
 C         2.610701        -0.070036         0.905305
 C         3.428719        -0.989754        -0.080006
 C         2.224192        -0.465296        -1.089373
 O         2.045513        -1.367316        -2.197664
 C         2.603386         0.993652        -1.340185
 C         2.184852         1.166464         0.108096
 O         2.024252         2.335506         0.726994
 H        -0.822988        -0.027156        -0.107791
 H        -0.300341        -1.533637         0.097193
 H        -0.304707        -0.618291         1.503033
 H         2.530258         0.114040         1.940289
 H         4.514404        -1.013916        -0.370283
 H         3.228286        -2.080526         0.142954
 H         1.624890        -0.736799        -2.834188
 H         3.627584         1.438018        -1.419141
 H         1.917047         1.437070        -2.093779
 H         1.077415         2.434815         0.819360
