19
Iteration:   174
 C        -0.183069        -0.295430         0.360923
 C         1.324991        -0.146443         0.147998
 C         2.527700        -0.167802         0.949888
 C         3.303183        -1.134287         0.071633
 C         2.387976        -0.562229        -1.153182
 O         2.410442        -1.257303        -2.372135
 C         2.586239         0.998732        -1.333098
 C         2.241600         1.140851         0.165860
 O         1.723296         2.387199         0.740276
 H        -0.593279         0.379711         1.075370
 H        -0.575425        -0.336141        -0.690762
 H        -0.426585        -1.467244         0.743713
 H         2.198491        -0.184513         2.006475
 H         4.374328        -1.186343        -0.053329
 H         2.895029        -2.221940         0.305588
 H         1.734590        -1.982408        -2.339826
 H         3.538687         1.370134        -1.798074
 H         1.741438         1.335666        -1.921455
 H         2.384493         2.792039         1.366261
