19
Iteration:   739
 C        -0.135976        -0.482468         0.426454
 C         1.283648        -0.088657         0.099273
 C         2.669224        -0.116986         0.922703
 C         3.359025        -1.056054        -0.018055
 C         2.390398        -0.493059        -1.176445
 O         2.111811        -1.153701        -2.358419
 C         2.754512         1.035051        -1.285473
 C         2.225924         1.109945         0.176097
 O         1.673784         2.211743         0.777681
 H        -0.467012         0.052315         1.343300
 H        -0.756108        -0.379408        -0.370778
 H         0.042407        -1.549329         0.695953
 H         2.595944        -0.253850         2.012067
 H         4.445197        -0.945927         0.024709
 H         3.056099        -2.087232         0.151115
 H         1.724923        -1.983389        -2.152068
 H         3.804980         1.380539        -1.466362
 H         2.131456         1.420310        -2.052271
 H         1.952558         3.099185         0.476963
