19
Iteration:  3824charge 0 multiplicity 1
 C        -0.043652        -0.793125         0.413045
 C         1.260980        -0.162140         0.081942
 C         2.691342        -0.193399         0.763996
 C         3.358897        -0.949996        -0.284480
 C         2.244033        -0.354530        -1.218601
 O         1.897713        -1.172127        -2.238569
 C         2.557262         1.108164        -1.287683
 C         2.154468         1.125565         0.248325
 O         2.028115         2.304707         1.016268
 H        -0.628301        -0.300901         1.201288
 H        -0.639539        -1.076558        -0.505175
 H         0.123765        -1.768423         1.018954
 H         2.962897        -0.180523         1.867777
 H         4.436526        -0.669754        -0.557007
 H         3.445092        -2.002015        -0.176429
 H         2.370360        -0.686144        -2.919763
 H         3.486791         1.578661        -1.646718
 H         1.695479         1.651785        -1.623095
 H         2.905336         2.540012         1.413374
