19
Iteration:  1092
 C        -0.065282        -0.614440         0.369458
 C         1.315935        -0.185342         0.074056
 C         2.557776        -0.165252         0.969352
 C         3.301999        -1.033113        -0.028384
 C         2.383702        -0.491590        -1.133826
 O         2.166172        -1.187573        -2.338657
 C         2.562870         1.056180        -1.268155
 C         2.173352         1.122671         0.205327
 O         1.932107         2.452511         0.670700
 H        -0.471126        -0.250285         1.282835
 H        -0.860480        -0.345361        -0.367498
 H        -0.070581        -1.695030         0.619650
 H         2.518097        -0.306591         2.051684
 H         4.345015        -0.763321        -0.198821
 H         3.055897        -2.102929         0.128399
 H         1.865082        -2.055141        -2.157369
 H         3.381880         1.653158        -1.641309
 H         1.692820         1.545008        -1.813432
 H         1.880746         2.395099         1.627268
