19
Iteration:   906charge 0 multiplicity 1
 C         0.021261        -0.730038         0.422343
 C         1.315290        -0.109359         0.165263
 C         2.652214        -0.068056         1.034372
 C         3.267940        -1.088497        -0.043658
 C         2.383969        -0.505317        -1.145533
 O         2.024298        -1.122463        -2.427815
 C         2.719646         1.018891        -1.221499
 C         2.124215         1.156486         0.178872
 O         1.769982         2.406393         0.628537
 H        -0.392078        -0.426972         1.374189
 H        -0.725634        -0.483040        -0.405675
 H         0.138723        -1.815435         0.519203
 H         2.690687         0.109992         2.114825
 H         4.300735        -0.906884        -0.261750
 H         3.053767        -2.190091         0.231461
 H         1.719022        -2.001550        -2.289194
 H         3.781896         1.303315        -1.370899
 H         2.176610         1.635598        -1.988842
 H         2.390275         2.727012         1.281599
