19
Iteration:  4331
 C        -0.103319        -0.400259         0.466584
 C         1.314985        -0.133913         0.126156
 C         2.660479        -0.097920         0.970623
 C         3.376163        -1.095006        -0.216905
 C         2.321994        -0.464192        -1.110215
 O         2.014975        -1.358971        -2.284925
 C         2.599534         1.075295        -1.332583
 C         2.152584         1.069231         0.146011
 O         1.954613         2.300253         0.789960
 H        -0.048310        -0.894751         1.468160
 H        -0.707627         0.521325         0.517282
 H        -0.581258        -1.055102        -0.278635
 H         2.806044         0.092139         2.054445
 H         4.458410        -0.786637        -0.326469
 H         3.255388        -2.079645         0.100665
 H         2.220293        -0.754893        -3.027536
 H         3.786523         1.263231        -1.476508
 H         1.900042         1.582802        -1.973339
 H         1.193518         2.176331         1.373672
