19
Iteration:  4218charge 0 multiplicity 1
 C         0.024112        -0.522029         0.333451
 C         1.391038        -0.147636         0.043793
 C         2.716835        -0.179063         0.950413
 C         3.339431        -1.074659        -0.126121
 C         2.275429        -0.402400        -1.157662
 O         1.779484        -1.210172        -2.218614
 C         2.752478         1.033242        -1.222194
 C         2.164405         1.111576         0.156180
 O         1.838168         2.284975         0.862690
 H        -0.672993         0.333578         0.244281
 H        -0.448060        -1.380732        -0.183650
 H        -0.075656        -0.843978         1.421507
 H         2.775939        -0.230475         2.064626
 H         4.415488        -0.969894        -0.388168
 H         3.155457        -2.168308         0.057012
 H         2.336757        -0.838293        -2.935754
 H         3.796611         1.213627        -1.662018
 H         2.109260         1.457857        -2.042995
 H         2.409602         2.971197         0.505559
