19
Iteration:  2516
 C         0.056818        -0.587580         0.671729
 C         1.433658        -0.263249         0.130953
 C         2.767878        -0.096841         0.891513
 C         3.539052        -0.857853        -0.166564
 C         2.359049        -0.421556        -1.191590
 O         1.959455        -1.294154        -2.233138
 C         2.571132         1.024284        -1.420839
 C         2.120610         1.110665         0.078073
 O         1.513965         2.250387         0.809890
 H         0.000043        -0.034038         1.634585
 H        -0.794349        -0.101704         0.159460
 H        -0.160200        -1.658653         0.639776
 H         2.908005        -0.126330         1.986256
 H         4.590629        -0.522376        -0.246597
 H         3.430886        -1.959171         0.056315
 H         2.598290        -1.178581        -2.988659
 H         3.557413         1.378893        -1.863189
 H         1.730278         1.525286        -2.006250
 H         2.032693         3.044765         0.593690
