19
Iteration:  4707
 C        -0.078068        -0.589344         0.451445
 C         1.358353        -0.112933         0.120633
 C         2.603713        -0.128051         0.869846
 C         3.339210        -0.963556        -0.040036
 C         2.312948        -0.504438        -1.063995
 O         1.909930        -1.331221        -2.260506
 C         2.703225         1.007645        -1.353516
 C         2.154254         1.180989         0.097909
 O         1.985282         2.345306         0.778261
 H        -0.620909        -0.841062        -0.539466
 H        -0.059585        -1.587943         1.016442
 H        -0.456410         0.229547         1.174028
 H         2.992225         0.067179         1.889700
 H         4.386298        -0.817651        -0.370834
 H         3.134065        -1.975139         0.346341
 H         2.367169        -0.846881        -2.956822
 H         3.795801         1.323657        -1.482302
 H         2.009678         1.421291        -2.056139
 H         1.066685         2.686004         0.820239
