19
Iteration:  1579
 C        -0.011452        -0.792912         0.463732
 C         1.327366        -0.177264         0.260133
 C         2.773856        -0.003851         0.847046
 C         3.439175        -0.880407        -0.183061
 C         2.418008        -0.453114        -1.196039
 O         2.081449        -1.371809        -2.233920
 C         2.392491         1.050858        -1.238567
 C         2.039188         1.161828         0.160741
 O         1.885166         2.428393         0.666679
 H        -0.428234        -0.156364         1.331354
 H        -0.736090        -0.454592        -0.394155
 H         0.059474        -1.896061         0.491369
 H         2.820667         0.113746         1.928800
 H         4.528156        -0.786627        -0.385460
 H         3.148704        -1.945674         0.154348
 H         1.176487        -1.258621        -2.544699
 H         3.436943         1.519421        -1.441349
 H         1.675958         1.452267        -1.922869
 H         1.978313         2.220243         1.595305
