19
Iteration:  3866charge 0 multiplicity 1
 C        -0.010997        -0.690532         0.389099
 C         1.331708        -0.124536         0.067355
 C         2.711194        -0.182571         0.830247
 C         3.438893        -1.022677        -0.239626
 C         2.317967        -0.457382        -1.172108
 O         1.927399        -1.098849        -2.379360
 C         2.486028         1.087907        -1.205332
 C         2.199454         1.172309         0.248836
 O         1.908567         2.287233         0.984259
 H        -0.079389        -0.745400         1.468746
 H        -0.859609        -0.218634        -0.136721
 H        -0.078889        -1.810678         0.325144
 H         2.948709        -0.213430         1.949605
 H         4.479302        -0.779228        -0.313168
 H         3.174555        -2.052785        -0.081290
 H         0.969107        -1.292214        -2.398645
 H         3.493377         1.361958        -1.691915
 H         1.700681         1.460701        -1.927113
 H         2.847049         2.466500         1.215293
