19
Iteration:  3934charge 0 multiplicity 1
 C        -0.004171        -0.307543         0.561428
 C         1.461652        -0.198296         0.108255
 C         2.721613        -0.315577         0.875519
 C         3.462441        -0.966294        -0.300459
 C         2.344509        -0.443266        -1.215332
 O         1.860629        -1.217952        -2.333292
 C         2.606385         1.094027        -1.259793
 C         2.194558         1.091854         0.151550
 O         1.665186         2.106010         0.993593
 H        -0.119421        -0.862785         1.508752
 H        -0.376218         0.735431         0.473992
 H        -0.508458        -0.957930        -0.225617
 H         3.025327        -0.356531         1.893604
 H         4.514442        -0.681054        -0.502238
 H         3.218796        -2.005960        -0.184591
 H         2.293820        -0.829588        -3.127412
 H         3.645830         1.534208        -1.428743
 H         1.842600         1.442298        -1.962125
 H         2.254663         2.871701         1.052763
