19
Iteration:  3168
 C         0.143527        -0.652495         0.570775
 C         1.497972        -0.216125         0.088431
 C         2.940819        -0.127794         0.798405
 C         3.539268        -0.909795        -0.339878
 C         2.372084        -0.382156        -1.205093
 O         1.676243        -1.097182        -2.273544
 C         2.547296         1.151587        -1.280842
 C         2.110495         1.136422         0.225903
 O         1.524030         2.047981         0.976121
 H        -0.443297        -1.088909        -0.260824
 H         0.429653        -1.380817         1.370531
 H        -0.430627         0.118435         1.189794
 H         3.266650        -0.116186         1.831893
 H         4.479204        -0.621877        -0.608364
 H         3.768523        -1.956556        -0.070115
 H         2.289327        -1.508699        -2.915787
 H         3.669855         1.340829        -1.458386
 H         1.981172         1.683843        -2.006957
 H         1.605269         2.890678         0.511837
