19
Iteration:  4174
 C        -0.002276        -0.337571         0.432842
 C         1.351525        -0.210649         0.077273
 C         2.675277        -0.220241         0.894565
 C         3.358105        -0.993626        -0.172180
 C         2.314048        -0.520510        -1.117452
 O         1.942422        -1.188666        -2.370372
 C         2.548184         1.000940        -1.294153
 C         2.199755         1.047996         0.187095
 O         1.811141         2.287570         0.902953
 H        -0.629414         0.114500        -0.340319
 H        -0.445919        -1.321984         0.674731
 H        -0.147711         0.321379         1.336434
 H         2.897450        -0.283183         2.017069
 H         4.394467        -0.771655        -0.446486
 H         3.285220        -2.116485        -0.049596
 H         2.720904        -1.725292        -2.631772
 H         3.580072         1.428541        -1.557396
 H         1.943225         1.717375        -1.845374
 H         2.657664         2.426720         1.333887
