19
Iteration:  3390charge 0 multiplicity 1
 C         0.030224        -0.802679         0.575241
 C         1.301516        -0.162997         0.123527
 C         2.769797        -0.202636         0.764161
 C         3.489727        -0.773856        -0.437137
 C         2.253606        -0.345889        -1.271678
 O         1.947446        -1.266320        -2.302821
 C         2.409145         1.228238        -1.241013
 C         2.061798         1.074661         0.214462
 O         2.025252         2.177546         1.079547
 H        -0.304585        -0.345610         1.537716
 H        -0.799140        -0.429556        -0.069916
 H         0.252982        -1.895927         0.505113
 H         3.190998        -0.033727         1.757248
 H         4.443524        -0.313513        -0.610088
 H         3.577132        -1.869809        -0.319641
 H         1.698055        -0.908071        -3.183664
 H         3.451161         1.657851        -1.372934
 H         1.627537         1.757459        -1.864690
 H         1.174733         2.188713         1.578211
