19
Iteration:  4258charge 0 multiplicity 1
 C        -0.068699        -0.647440         0.314915
 C         1.370026        -0.115934         0.079541
 C         2.675772        -0.125138         0.913786
 C         3.319017        -1.049370        -0.106677
 C         2.328110        -0.434726        -1.070663
 O         1.822732        -1.218369        -2.165399
 C         2.721375         1.003042        -1.380283
 C         2.224700         1.166867         0.121430
 O         1.898400         2.379254         0.862761
 H        -0.746273         0.009462         0.885667
 H        -0.424148        -0.972483        -0.693791
 H         0.138732        -1.614560         0.852498
 H         2.582823        -0.116045         2.096778
 H         4.321429        -1.010894        -0.507745
 H         2.868112        -2.104276        -0.083653
 H         2.098401        -0.947944        -3.043616
 H         3.724525         1.175039        -1.430536
 H         2.008399         1.593495        -2.038098
 H         2.701086         2.425347         1.457932
