19
Iteration:   805
 C        -0.128088        -0.341560         0.282885
 C         1.366225        -0.160616         0.129204
 C         2.671228        -0.140528         0.977887
 C         3.417575        -0.954730        -0.003417
 C         2.372251        -0.482406        -1.149904
 O         2.101280        -1.288276        -2.298955
 C         2.563459         1.059101        -1.434122
 C         2.158770         1.112205         0.069500
 O         1.824403         2.216587         0.889168
 H        -0.521846         0.273605         1.155734
 H        -0.725618        -0.170319        -0.551218
 H        -0.346335        -1.417060         0.619912
 H         2.886047         0.041004         2.051196
 H         4.440768        -0.549398        -0.045051
 H         3.239240        -2.040067         0.049053
 H         2.197053        -2.246059        -1.937037
 H         3.578192         1.460357        -1.641774
 H         1.807633         1.472266        -2.072187
 H         1.245112         1.799228         1.567808
