19
Iteration:  4134charge 0 multiplicity 1
 C        -0.139955        -0.236677         0.464592
 C         1.332636        -0.111349         0.112997
 C         2.700541        -0.246200         0.855692
 C         3.380573        -1.007578        -0.227838
 C         2.307149        -0.486601        -1.271636
 O         2.092438        -1.267924        -2.310301
 C         2.538234         1.064570        -1.303882
 C         2.188832         1.145115         0.124749
 O         1.832596         2.160121         0.989896
 H        -0.745071        -0.781700        -0.295032
 H         0.026712        -1.063334         1.161545
 H        -0.628329         0.619466         0.886491
 H         3.039546        -0.082902         1.887516
 H         4.500571        -0.796243        -0.508701
 H         3.513892        -2.041103         0.040101
 H         1.601302        -2.083770        -2.145766
 H         3.581454         1.358047        -1.618536
 H         1.913336         1.609316        -2.060370
 H         2.358545         2.103770         1.828849
