19
Iteration:  1663
 C         0.096555        -0.511445         0.614473
 C         1.425567        -0.180965         0.159514
 C         2.845334        -0.101781         0.859650
 C         3.476932        -0.947790        -0.227303
 C         2.342942        -0.475687        -1.160661
 O         1.967886        -1.201227        -2.207422
 C         2.519237         0.971912        -1.335355
 C         2.133075         1.088094         0.120377
 O         1.577508         2.342589         0.702690
 H        -0.289949        -0.159725         1.582204
 H        -0.621198        -0.258382        -0.141360
 H         0.120091        -1.662249         0.771808
 H         3.041519         0.070210         1.918098
 H         4.502537        -0.839913        -0.667591
 H         3.286790        -1.995799         0.168188
 H         2.852619        -1.547780        -2.506900
 H         3.534097         1.242856        -1.640158
 H         1.610612         1.349182        -1.908448
 H         0.816041         2.011961         1.237046
