19
Iteration:   800
 C        -0.129109        -0.329074         0.313567
 C         1.389573        -0.199561         0.129595
 C         2.645311        -0.127466         1.025936
 C         3.418481        -0.956252        -0.011940
 C         2.351212        -0.464599        -1.148511
 O         2.086402        -1.279596        -2.337706
 C         2.609001         1.048863        -1.423613
 C         2.194988         1.036639         0.112793
 O         1.791844         2.249562         0.856802
 H        -0.626219         0.277959         1.074383
 H        -0.788726        -0.148797        -0.626408
 H        -0.367627        -1.359988         0.588980
 H         2.931550         0.186040         2.031892
 H         4.472552        -0.556615        -0.025984
 H         3.464226        -2.065417         0.039975
 H         2.216539        -2.177023        -2.115953
 H         3.521917         1.524930        -1.785912
 H         1.686927         1.341679        -2.009655
 H         1.350536         1.927618         1.655018
