19
Iteration:   779charge 0 multiplicity 1
 C        -0.078223        -0.326193         0.305968
 C         1.401894        -0.239839         0.126061
 C         2.665757        -0.164087         0.918444
 C         3.488459        -0.957025        -0.107828
 C         2.357998        -0.588194        -1.072307
 O         2.081761        -1.143263        -2.333300
 C         2.542204         0.913116        -1.174784
 C         2.166667         1.096391         0.209958
 O         1.705934         2.323884         0.679245
 H        -0.393596         0.444955         1.058570
 H        -0.761609        -0.092516        -0.588438
 H        -0.546583        -1.283950         0.700923
 H         2.648657        -0.554909         1.951363
 H         4.549801        -0.556574        -0.304310
 H         3.442669        -2.006501         0.175012
 H         2.236187        -2.147628        -2.286890
 H         3.566458         1.263596        -1.357211
 H         1.807029         1.394735        -1.858999
 H         1.971902         2.414902         1.609999
