19
Iteration:  1340charge 0 multiplicity 1
 C         0.015422        -0.816275         0.384788
 C         1.353616        -0.117727         0.169955
 C         2.797580        -0.102513         0.969765
 C         3.394757        -0.991364        -0.174886
 C         2.287046        -0.469095        -1.061773
 O         1.841812        -1.151332        -2.244273
 C         2.729584         0.975877        -1.235618
 C         2.140757         1.152864         0.164146
 O         1.734229         2.475071         0.667144
 H        -0.636549        -0.288332         1.201747
 H        -0.668926        -0.810029        -0.513118
 H         0.223541        -1.909386         0.711932
 H         2.798597        -0.317854         2.047407
 H         4.502242        -0.789127        -0.439289
 H         3.282417        -2.013410         0.133546
 H         2.370184        -1.910416        -2.205158
 H         3.802138         1.365742        -1.373181
 H         1.995959         1.353210        -1.915237
 H         2.137508         3.144200         0.100835
