19
Iteration:  2511charge 0 multiplicity 1
 C         0.080474        -0.572759         0.651907
 C         1.451353        -0.246818         0.095481
 C         2.696464        -0.063517         0.895386
 C         3.545394        -0.861633        -0.156432
 C         2.383939        -0.489427        -1.127269
 O         1.970279        -1.315265        -2.256697
 C         2.509506         1.057121        -1.436701
 C         2.094295         1.140487         0.090872
 O         1.567502         2.227638         0.840768
 H        -0.000691        -0.136180         1.696546
 H        -0.709311         0.005027         0.138022
 H        -0.070424        -1.658538         0.468106
 H         2.818325         0.004726         1.968036
 H         4.619841        -0.577725        -0.322404
 H         3.571347        -1.924600         0.076543
 H         2.428306        -1.126099        -3.071559
 H         3.508107         1.392540        -1.811228
 H         1.680206         1.408843        -2.037964
 H         2.060348         3.013972         0.507149
