19
Iteration:  4694
 C         0.000958        -0.589894         0.428386
 C         1.327198        -0.092876         0.097990
 C         2.645267        -0.031935         0.981588
 C         3.341401        -1.085831        -0.095457
 C         2.345601        -0.499768        -1.174931
 O         1.868871        -1.294154        -2.167787
 C         2.697486         1.046936        -1.328723
 C         2.138025         1.147960         0.047915
 O         1.946140         2.343797         0.811877
 H        -0.778147        -0.518243        -0.373425
 H         0.122116        -1.618225         0.845018
 H        -0.579070        -0.028857         1.243489
 H         2.628937         0.131536         2.027148
 H         4.478349        -0.829927        -0.142176
 H         3.259095        -2.139172        -0.068004
 H         2.432964        -1.296975        -2.985241
 H         3.846145         1.162025        -1.567168
 H         2.177120         1.546636        -2.137769
 H         1.081563         2.634795         0.489633
