19
Iteration:  1597
 C         0.008909        -0.686810         0.555388
 C         1.335635        -0.221490         0.102304
 C         2.696192        -0.119219         0.890407
 C         3.466853        -0.873198        -0.182309
 C         2.259102        -0.480676        -1.120780
 O         2.099634        -1.375481        -2.161008
 C         2.528118         1.098734        -1.412686
 C         2.116093         1.153506         0.149876
 O         1.806881         2.416386         0.713840
 H        -0.377179        -0.308385         1.451936
 H        -0.737685        -0.476346        -0.147264
 H         0.152932        -1.803906         0.567348
 H         2.935513        -0.171781         1.979621
 H         4.349859        -0.397508        -0.606827
 H         3.512490        -1.971831        -0.072776
 H         1.670661        -0.935049        -2.890482
 H         3.483179         1.501642        -1.638697
 H         1.626112         1.608835        -1.825230
 H         1.613993         2.419565         1.659405
