19
Iteration:  2471charge 0 multiplicity 1
 C        -0.050939        -0.740648         0.428210
 C         1.400454        -0.225601         0.275818
 C         2.770017        -0.028086         0.922172
 C         3.478983        -0.810517        -0.237365
 C         2.311589        -0.442452        -1.182579
 O         2.176592        -1.426477        -2.124791
 C         2.355014         1.067086        -1.449089
 C         2.132948         1.158141         0.123276
 O         1.765961         2.357805         0.891772
 H        -0.468093        -1.050115         1.457002
 H        -0.791298         0.029260         0.169027
 H        -0.261732        -1.526037        -0.290649
 H         2.990405         0.189591         1.913179
 H         4.446049        -0.572695        -0.722626
 H         3.263092        -1.913125        -0.146127
 H         1.325504        -1.079577        -2.562408
 H         3.311885         1.338679        -2.000490
 H         1.595253         1.472292        -2.190765
 H         2.399696         3.040387         0.664185
