19
Iteration:  2023charge 0 multiplicity 1
 C         0.057667        -0.687946         0.681578
 C         1.385053        -0.261157         0.310985
 C         2.855371        -0.076610         0.864397
 C         3.384189        -0.887816        -0.320836
 C         2.329052        -0.431931        -1.176983
 O         2.189012        -1.313540        -2.190813
 C         2.425211         1.074344        -1.436432
 C         2.003159         1.118073         0.119174
 O         1.638674         2.329260         0.805906
 H        -0.461754        -0.037615         1.458469
 H        -0.551944        -0.516373        -0.207828
 H        -0.002561        -1.747486         0.699168
 H         3.313379        -0.133492         1.847879
 H         4.363336        -0.661292        -0.831038
 H         3.318642        -1.962817        -0.078088
 H         1.845155        -0.774079        -2.868579
 H         3.336704         1.599631        -1.750122
 H         1.559646         1.527879        -1.966402
 H         2.417356         2.855302         0.474094
