19
Iteration:  4066charge 0 multiplicity 1
 C        -0.033664        -0.623989         0.333253
 C         1.375010        -0.219284         0.134475
 C         2.751738        -0.174650         0.896270
 C         3.308789        -1.087867        -0.195330
 C         2.292197        -0.400038        -1.072327
 O         1.832010        -1.138584        -2.236138
 C         2.721207         1.072179        -1.309868
 C         2.222072         1.119764         0.181037
 O         1.814233         2.343840         0.879217
 H        -0.286936        -1.534143        -0.205395
 H         0.024335        -1.022882         1.348304
 H        -0.784445         0.169806         0.235752
 H         2.840085        -0.397449         1.989003
 H         4.484276        -1.155768        -0.449274
 H         3.057117        -2.146932         0.053241
 H         1.802441        -0.477065        -2.942351
 H         3.856207         1.107114        -1.483144
 H         2.131056         1.532738        -2.111520
 H         2.538743         2.982304         0.784931
