19
Iteration:  3667
 C        -0.000685        -0.727035         0.493621
 C         1.364441        -0.138938         0.145782
 C         2.771963        -0.268073         0.811207
 C         3.438989        -0.921091        -0.324952
 C         2.269943        -0.443851        -1.218491
 O         1.968255        -1.106289        -2.393610
 C         2.459129         1.162614        -1.253235
 C         2.136679         1.112034         0.240894
 O         1.917359         2.235070         1.030175
 H        -0.186793        -0.482997         1.561863
 H        -0.897132        -0.336532        -0.010171
 H         0.069816        -1.800146         0.357644
 H         2.821392        -0.219062         1.925617
 H         4.601164        -0.602078        -0.536875
 H         3.361543        -2.063924        -0.268183
 H         1.080216        -1.544197        -2.276340
 H         3.332188         1.719720        -1.548861
 H         1.546256         1.548942        -1.764737
 H         2.480782         2.984867         0.749120
