19
Iteration:  3582
 C         0.072851        -0.720948         0.522426
 C         1.448244        -0.125487         0.120932
 C         2.766938        -0.225725         0.797714
 C         3.486652        -0.996544        -0.342654
 C         2.285645        -0.370161        -1.202576
 O         1.867963        -1.059084        -2.351261
 C         2.466044         1.210679        -1.260416
 C         2.098348         1.078485         0.202521
 O         1.865970         2.217965         0.938455
 H         0.276513        -1.018401         1.559566
 H        -0.884671        -0.137193         0.569907
 H        -0.138037        -1.701948         0.024355
 H         2.886688        -0.178052         1.893958
 H         4.416448        -0.627500        -0.578548
 H         3.458114        -2.059496        -0.220200
 H         1.570658        -1.891116        -1.955438
 H         3.401416         1.693769        -1.608663
 H         1.686506         1.649392        -1.916921
 H         1.747808         2.107953         1.882504
