19
Iteration:  3822
 C        -0.036275        -0.788300         0.425492
 C         1.263860        -0.146376         0.064595
 C         2.694406        -0.196366         0.770741
 C         3.383764        -0.957500        -0.283791
 C         2.240105        -0.376629        -1.220777
 O         1.887702        -1.163543        -2.242516
 C         2.556128         1.103959        -1.283403
 C         2.166359         1.128284         0.242617
 O         2.016405         2.303861         1.018404
 H        -0.671884        -0.312588         1.155017
 H        -0.578960        -1.064295        -0.496211
 H         0.110702        -1.717933         1.024658
 H         2.940083        -0.178624         1.867585
 H         4.309723        -0.665567        -0.599285
 H         3.418409        -1.999034        -0.117049
 H         2.431676        -0.752087        -2.944877
 H         3.453815         1.676893        -1.574367
 H         1.658126         1.652435        -1.627008
 H         2.895090         2.484598         1.426261
