19
Iteration:  1277
 C        -0.115044        -0.573174         0.499071
 C         1.370114        -0.108207         0.096634
 C         2.646438        -0.030695         0.817923
 C         3.397437        -0.925514        -0.187799
 C         2.268098        -0.575959        -1.121064
 O         2.093389        -1.373725        -2.236388
 C         2.642232         0.988788        -1.367998
 C         2.109538         1.216068         0.053730
 O         1.876641         2.334615         0.957580
 H        -0.334175        -0.107382         1.418308
 H        -0.871043        -0.215663        -0.093298
 H        -0.062602        -1.693847         0.666999
 H         2.652449        -0.046177         1.905423
 H         4.473148        -0.639097        -0.362027
 H         3.247009        -1.933431         0.115972
 H         2.732042        -1.147520        -2.901500
 H         3.611606         1.435680        -1.445529
 H         1.943992         1.301321        -2.203164
 H         0.926571         2.346057         0.987785
