19
Iteration:  2259charge 0 multiplicity 1
 C         0.016475        -0.611158         0.589565
 C         1.358633        -0.208815         0.107529
 C         2.876918        -0.074561         0.868137
 C         3.679268        -0.758395        -0.270446
 C         2.352469        -0.464192        -1.153767
 O         1.929297        -1.373542        -2.279248
 C         2.522583         1.045856        -1.288462
 C         2.106953         1.101760         0.153121
 O         1.562228         2.258873         0.808332
 H        -0.442125         0.211312         1.093632
 H        -0.601124        -0.831524        -0.305960
 H         0.050513        -1.619887         0.987345
 H         2.990931        -0.041555         1.928269
 H         4.656085        -0.311315        -0.574752
 H         3.794411        -1.829781        -0.174064
 H         0.943503        -1.180178        -2.279990
 H         3.414261         1.594400        -1.550772
 H         1.841263         1.418612        -1.985560
 H         2.182813         2.622254         1.436100
