19
Iteration:  3312
 C         0.175143        -0.677775         0.572817
 C         1.469414        -0.255338         0.174837
 C         2.957042        -0.198817         0.787669
 C         3.501629        -0.939024        -0.455660
 C         2.259592        -0.407344        -1.164155
 O         1.796430        -0.963569        -2.376558
 C         2.515992         1.100295        -1.145249
 C         2.161215         1.102472         0.288886
 O         1.567888         2.253504         0.854266
 H         0.350766        -1.353289         1.478826
 H        -0.525878         0.202708         0.803723
 H        -0.266759        -1.341507        -0.244334
 H         3.397020        -0.316812         1.825671
 H         4.517318        -0.804175        -0.741539
 H         3.410258        -2.056517        -0.359468
 H         1.989386        -1.945460        -2.448884
 H         3.542231         1.301900        -1.649649
 H         1.667680         1.536289        -1.676479
 H         1.257622         2.033409         1.764770
