19
Iteration:  3895
 C         0.062132        -0.501636         0.483608
 C         1.435740        -0.176174         0.157267
 C         2.749800        -0.199653         0.851549
 C         3.369799        -1.016385        -0.288967
 C         2.324420        -0.428716        -1.206537
 O         1.821768        -1.051662        -2.343209
 C         2.668643         1.128357        -1.257842
 C         2.192697         1.114120         0.201537
 O         1.685731         2.141542         0.914355
 H        -0.096943        -0.877981         1.522141
 H        -0.656531         0.279773         0.227818
 H        -0.292101        -1.363716        -0.065358
 H         3.066503        -0.226067         1.905240
 H         4.566907        -0.843144        -0.432189
 H         3.278825        -2.159195        -0.137269
 H         1.812393        -1.995066        -2.121799
 H         3.683717         1.349944        -1.589501
 H         1.976787         1.609867        -1.989466
 H         2.549003         2.328764         1.362261
