19
Iteration:  3498
 C         0.186778        -0.657795         0.580225
 C         1.470322        -0.237493         0.044627
 C         2.853933        -0.139725         0.784400
 C         3.417476        -0.924455        -0.365447
 C         2.282537        -0.384459        -1.245502
 O         1.764632        -1.120716        -2.429565
 C         2.450218         1.162044        -1.236270
 C         2.148136         1.127031         0.237196
 O         1.740449         2.201920         1.054813
 H        -0.165633         0.049070         1.325573
 H        -0.572093        -0.696463        -0.200495
 H         0.221045        -1.640406         1.084024
 H         3.080103        -0.315816         1.810072
 H         4.552476        -0.740618        -0.612124
 H         3.484691        -2.024834        -0.053528
 H         2.481727        -1.765277        -2.683781
 H         3.432110         1.473573        -1.533104
 H         1.571317         1.606717        -1.645302
 H         1.767674         1.994220         2.016517
