19
Iteration:  4745charge 0 multiplicity 1
 C        -0.063208        -0.464238         0.488108
 C         1.317593        -0.147197         0.182946
 C         2.629801        -0.200471         0.925009
 C         3.375790        -1.001824        -0.099510
 C         2.293540        -0.546309        -1.168821
 O         2.119383        -1.312394        -2.251293
 C         2.563516         1.032730        -1.331243
 C         2.145005         1.137415         0.103176
 O         1.998765         2.375672         0.794414
 H        -0.601652        -0.824704        -0.355071
 H        -0.238200        -1.222500         1.254673
 H        -0.694748         0.381681         0.579100
 H         2.927691        -0.101159         1.936035
 H         4.447475        -0.831029        -0.217772
 H         3.141476        -2.071808         0.064382
 H         1.332892        -1.031658        -2.752136
 H         3.468419         1.474875        -1.641973
 H         1.696623         1.346606        -1.994958
 H         1.164427         2.713590         0.359192
