19
Iteration:   300charge 0 multiplicity 1
 C        -0.175897        -0.532021         0.292858
 C         1.291842        -0.203333         0.009678
 C         2.473906        -0.085437         0.961547
 C         3.293635        -1.061806         0.080422
 C         2.281842        -0.545445        -1.047047
 O         2.174683        -1.186279        -2.276515
 C         2.801860         0.881518        -1.170591
 C         2.156173         1.126380         0.176283
 O         1.859795         2.370785         0.651657
 H        -0.449944        -0.190835         1.345484
 H        -0.810249         0.002312        -0.469319
 H        -0.188731        -1.590539         0.195522
 H         2.597491        -0.025594         2.043731
 H         4.286782        -0.571564        -0.126533
 H         3.416511        -2.047130         0.365245
 H         2.045002        -0.435410        -2.970934
 H         3.886251         0.923526        -1.371953
 H         2.345852         1.520007        -1.961798
 H         2.496059         3.068495         0.423671
