19
Iteration:  1612charge 0 multiplicity 1
 C         0.070355        -0.635927         0.587817
 C         1.391656        -0.129041         0.057394
 C         2.656911        -0.092067         0.883988
 C         3.443585        -0.824356        -0.222937
 C         2.332766        -0.495527        -1.151774
 O         2.036747        -1.358567        -2.174814
 C         2.518921         0.996898        -1.347546
 C         2.156060         1.145150         0.113654
 O         1.727242         2.358200         0.758214
 H         0.073973        -0.184080         1.597992
 H        -0.844264        -0.288302         0.007490
 H        -0.099176        -1.659604         0.890460
 H         2.448308        -0.307879         1.915659
 H         4.416400        -0.389258        -0.410265
 H         3.747397        -1.884434         0.011435
 H         2.160581        -0.806922        -3.022732
 H         3.503121         1.223311        -1.808753
 H         1.778286         1.318009        -2.034194
 H         1.408748         1.976044         1.578809
