19
Iteration:   749charge 0 multiplicity 1
 C        -0.159717        -0.471613         0.434857
 C         1.384078        -0.140516         0.179101
 C         2.594093        -0.228423         0.945669
 C         3.407749        -1.057448        -0.094714
 C         2.457084        -0.475776        -1.137198
 O         2.103532        -1.137615        -2.349504
 C         2.720952         1.032097        -1.233778
 C         2.190151         1.123035         0.127546
 O         1.636251         2.261255         0.709717
 H        -0.618448         0.228310         1.193943
 H        -0.709588        -0.247201        -0.387458
 H        -0.487091        -1.526523         0.768293
 H         2.855423        -0.059919         2.010026
 H         4.522173        -0.978061        -0.192469
 H         3.219566        -2.099630         0.037901
 H         1.772834        -2.010537        -2.083990
 H         3.769973         1.340813        -1.336464
 H         2.063547         1.571604        -1.868975
 H         2.301591         2.999483         0.542426
