19
Iteration:  3179
 C         0.120622        -0.702236         0.588486
 C         1.489053        -0.245118         0.127702
 C         2.865911        -0.067144         0.803056
 C         3.621048        -0.858175        -0.287430
 C         2.313529        -0.494929        -1.247752
 O         1.665527        -1.065775        -2.295311
 C         2.583372         1.118657        -1.302734
 C         2.179754         1.091258         0.158423
 O         1.567895         2.118403         1.026335
 H        -0.418084        -1.325957        -0.162264
 H         0.170193        -1.508114         1.388693
 H        -0.597653         0.152391         0.809113
 H         3.156767        -0.305368         1.806648
 H         4.440631        -0.437626        -0.733690
 H         3.702270        -1.909979         0.059140
 H         2.325369        -1.153376        -3.057736
 H         3.641335         1.577653        -1.519207
 H         1.825446         1.479301        -1.958370
 H         1.583152         3.050233         0.713637
