19
Iteration:  1690
 C         0.087216        -0.660449         0.585058
 C         1.435779        -0.282055         0.142365
 C         2.682606        -0.074155         0.874436
 C         3.585574        -0.805857        -0.199161
 C         2.364502        -0.457245        -1.165797
 O         1.872181        -1.332779        -2.267357
 C         2.541246         1.108825        -1.351265
 C         2.157635         1.133444         0.149023
 O         1.723259         2.381155         0.771042
 H        -0.393673        -0.152910         1.387121
 H        -0.547595        -0.365346        -0.293395
 H         0.009564        -1.690278         0.751968
 H         2.618038        -0.235632         1.956828
 H         4.563618        -0.513817        -0.566837
 H         3.487037        -1.870787         0.011137
 H         2.248431        -2.192505        -1.922515
 H         3.486550         1.550947        -1.658043
 H         1.662172         1.407539        -1.819360
 H         0.746905         2.317191         0.785147
