19
Iteration:  2939charge 0 multiplicity 1
 C         0.009897        -0.590060         0.685080
 C         1.368768        -0.171897         0.089838
 C         2.729496        -0.006078         0.770008
 C         3.551397        -0.826337        -0.341777
 C         2.292397        -0.496589        -1.181256
 O         2.139172        -1.187469        -2.405365
 C         2.186211         1.072124        -1.328663
 C         2.096230         1.091888         0.131532
 O         1.816114         2.133988         0.990384
 H        -0.124636        -0.138052         1.687727
 H        -0.755725        -0.369053        -0.009282
 H        -0.058927        -1.647275         1.030660
 H         2.942771         0.009658         1.807415
 H         4.579336        -0.238110        -0.423504
 H         3.904000        -1.893778        -0.143256
 H         2.251920        -2.115579        -2.070969
 H         3.067143         1.501855        -1.870072
 H         1.211809         1.202440        -1.785653
 H         2.541268         2.241865         1.619100
