19
Iteration:  1137charge 0 multiplicity 1
 C        -0.100547        -0.724362         0.357249
 C         1.271897        -0.195074         0.080209
 C         2.628293        -0.013674         0.937007
 C         3.335392        -0.994632        -0.049882
 C         2.284708        -0.514184        -1.144860
 O         2.063188        -1.158947        -2.349585
 C         2.644752         1.015221        -1.185947
 C         2.099830         1.151270         0.205877
 O         2.037162         2.377015         0.749471
 H        -0.582712        -0.076483         1.079718
 H        -0.701856        -0.347360        -0.571151
 H        -0.216153        -1.757801         0.673270
 H         2.834586         0.020329         1.986788
 H         4.381415        -0.769731        -0.246987
 H         3.096793        -1.988591         0.433886
 H         2.413858        -2.009292        -2.206182
 H         3.665784         1.190787        -1.529938
 H         2.050185         1.370182        -2.089739
 H         1.149375         2.764141         0.783946
