19
Iteration:    74
 C        -0.161093        -0.477238        -0.016620
 C         1.315364        -0.098298         0.123861
 C         2.641882        -0.069666         0.986788
 C         3.358507        -1.040168         0.112002
 C         2.425626        -0.527551        -1.070884
 O         2.053434        -1.314984        -2.100158
 C         2.600173         0.948359        -1.298197
 C         2.205346         1.114504         0.141752
 O         1.832633         2.384897         0.751454
 H        -0.808199        -0.197243         0.826146
 H        -0.608933        -0.159065        -1.009887
 H        -0.223264        -1.660026        -0.143950
 H         3.116560         0.159143         1.922213
 H         4.432915        -1.098538         0.076042
 H         2.873710        -2.107194         0.184361
 H         2.150330        -0.850505        -2.903931
 H         3.633883         1.246590        -1.610852
 H         1.874200         1.450341        -1.906318
 H         2.412293         2.470373         1.521962
