19
Iteration:  2890charge 0 multiplicity 1
 C         0.074507        -0.740040         0.712555
 C         1.422302        -0.191766         0.148608
 C         2.761551        -0.127305         0.772620
 C         3.497727        -0.856615        -0.368851
 C         2.284378        -0.473245        -1.158474
 O         2.004978        -1.172803        -2.345007
 C         2.443925         1.161666        -1.264749
 C         2.121075         1.094912         0.157648
 O         1.661207         2.294402         0.819723
 H         0.142065        -1.125082         1.720895
 H        -0.791509        -0.044563         0.569181
 H        -0.234056        -1.624508         0.153274
 H         3.063048        -0.258980         1.845225
 H         4.501728        -0.575075        -0.828340
 H         3.582317        -1.970897        -0.065903
 H         2.132467        -2.125856        -2.175990
 H         3.374760         1.647577        -1.436422
 H         1.569502         1.699702        -1.685936
 H         2.385956         2.600649         1.416568
