19
Iteration:  1797
 C         0.085200        -0.733628         0.669251
 C         1.411721        -0.221592         0.150208
 C         2.736317         0.101592         0.879304
 C         3.521989        -0.861396        -0.242340
 C         2.358958        -0.556733        -1.123218
 O         1.903800        -1.280558        -2.267933
 C         2.603872         0.964858        -1.364757
 C         2.119898         1.152521         0.118714
 O         1.580321         2.330553         0.736688
 H        -0.020473        -0.411004         1.664218
 H        -0.803860        -0.527560         0.042856
 H         0.130399        -1.916532         0.661630
 H         2.870302         0.025697         1.982158
 H         4.395464        -0.399208        -0.673757
 H         3.852260        -1.897464         0.120638
 H         1.933567        -0.598098        -3.012610
 H         3.588363         1.335426        -1.754886
 H         1.827914         1.469009        -2.011619
 H         2.071918         2.541265         1.542258
