19
Iteration:   275charge 0 multiplicity 1
 C        -0.097142        -0.573600         0.141152
 C         1.364404        -0.078050         0.054602
 C         2.553400        -0.108568         1.034111
 C         3.255425        -1.176842         0.065233
 C         2.475318        -0.524341        -1.094382
 O         1.974667        -1.307744        -2.185670
 C         2.817638         1.046873        -1.271079
 C         2.116040         1.239854         0.141986
 O         1.784637         2.435974         0.710312
 H        -0.473141        -0.436571         1.175592
 H        -0.703418        -0.149709        -0.576422
 H         0.176214        -1.683942         0.016016
 H         2.659974        -0.191696         2.123331
 H         4.352484        -1.302127         0.072421
 H         2.841102        -2.170450         0.285258
 H         2.412253        -0.987435        -3.023933
 H         3.813096         1.369593        -1.482694
 H         2.113184         1.490276        -2.046961
 H         2.490888         2.683587         1.316324
