19
Iteration:   159charge 0 multiplicity 1
 C        -0.118948        -0.317651         0.422682
 C         1.290995        -0.069532        -0.032752
 C         2.575116        -0.089111         0.949947
 C         3.209060        -1.144300         0.007734
 C         2.442604        -0.580792        -1.124373
 O         2.396129        -1.259255        -2.383086
 C         2.721543         0.904565        -1.285930
 C         2.099667         1.169011         0.141114
 O         1.638795         2.333724         0.822815
 H        -0.323076         0.535943         1.179405
 H        -0.913652         0.012021        -0.323163
 H        -0.298732        -1.278652         0.921163
 H         2.617761        -0.163765         2.020182
 H         4.352487        -1.204910        -0.092171
 H         2.845694        -2.145484         0.261283
 H         1.922579        -2.150722        -2.263534
 H         3.790882         1.221073        -1.516941
 H         2.005870         1.268893        -2.049826
 H         2.466125         2.822047         0.989357
