19
Iteration:  1567
 C         0.005342        -0.785571         0.421791
 C         1.389413        -0.215055         0.208266
 C         2.772637         0.074866         0.887646
 C         3.417287        -0.935687        -0.110224
 C         2.347072        -0.524195        -1.123165
 O         2.081563        -1.288094        -2.258385
 C         2.412909         1.053353        -1.342769
 C         1.995831         1.133727         0.125891
 O         1.911445         2.458032         0.716809
 H        -0.617626        -0.540215         1.303426
 H        -0.542997        -0.603678        -0.560191
 H        -0.023839        -1.914491         0.588530
 H         3.026424        -0.012087         1.951876
 H         4.427164        -0.851459        -0.494245
 H         3.321275        -2.046251         0.234532
 H         1.062514        -1.371348        -2.149151
 H         3.300689         1.689440        -1.623829
 H         1.554222         1.364797        -1.934925
 H         2.188115         2.529422         1.643901
