19
Iteration:   790charge 0 multiplicity 1
 C        -0.122490        -0.333635         0.340228
 C         1.343737        -0.227045         0.111587
 C         2.622018        -0.138819         0.979906
 C         3.471669        -0.941034        -0.055237
 C         2.388179        -0.551933        -1.143885
 O         2.067308        -1.208791        -2.358709
 C         2.600761         0.972258        -1.282140
 C         2.218849         1.075103         0.236122
 O         1.741413         2.278710         0.749229
 H        -0.486744         0.450974         1.049916
 H        -0.461565        -0.064692        -0.704012
 H        -0.454269        -1.378534         0.607780
 H         2.770732         0.031362         2.069462
 H         4.524583        -0.626012        -0.406171
 H         3.541278        -1.980268         0.250466
 H         2.254620        -2.141428        -2.294381
 H         3.445040         1.299395        -1.878782
 H         1.690015         1.380352        -1.771124
 H         1.626020         2.223622         1.694907
