19
Iteration:  3354charge 0 multiplicity 1
 C         0.133838        -0.661820         0.596742
 C         1.432677        -0.229283         0.055287
 C         2.815652        -0.187312         0.753151
 C         3.499196        -0.864157        -0.343409
 C         2.308926        -0.406726        -1.222712
 O         1.828588        -1.091798        -2.333770
 C         2.361992         1.107935        -1.295553
 C         2.123098         1.088965         0.242404
 O         1.817909         2.175463         1.025631
 H         0.271922        -0.958581         1.599811
 H        -0.626182         0.077324         0.385832
 H        -0.321419        -1.548908         0.144546
 H         3.109541        -0.145719         1.832607
 H         4.494431        -0.497906        -0.720787
 H         3.619722        -1.977892        -0.140079
 H         2.609831        -1.030549        -2.912698
 H         3.253191         1.627733        -1.588814
 H         1.532709         1.497080        -1.798185
 H         1.261930         2.020913         1.806940
