19
Iteration:  1885
 C         0.028033        -0.646586         0.561993
 C         1.400533        -0.378603         0.175570
 C         2.742550         0.016154         0.766113
 C         3.634991        -0.740022        -0.235546
 C         2.351335        -0.462441        -1.116622
 O         1.985784        -1.380709        -2.196081
 C         2.387661         1.035254        -1.353501
 C         2.047450         1.141164         0.127962
 O         1.739303         2.288463         0.879126
 H        -0.333881         0.004803         1.267104
 H        -0.668976        -0.670350        -0.252278
 H        -0.127786        -1.722126         0.828230
 H         2.939610        -0.005519         1.834404
 H         4.580205        -0.288984        -0.430793
 H         3.614692        -1.780277         0.198155
 H         1.898344        -0.985236        -3.119660
 H         3.240445         1.548085        -1.830593
 H         1.501491         1.360948        -1.922544
 H         2.300999         2.996471         0.508152
