19
Iteration:  4996charge 0 multiplicity 1
 C        -0.085794        -0.461508         0.425756
 C         1.375855        -0.107276         0.094853
 C         2.703243        -0.155539         0.916556
 C         3.375438        -0.970398        -0.132656
 C         2.329557        -0.499272        -1.133255
 O         1.979808        -1.423475        -2.151623
 C         2.677406         1.026480        -1.402049
 C         2.133796         1.194213         0.082445
 O         1.912706         2.319436         0.865694
 H        -0.677992         0.026681        -0.349497
 H        -0.368416        -1.493678         0.692959
 H        -0.509368         0.011113         1.333800
 H         2.906423        -0.128858         1.999286
 H         4.431446        -0.696383        -0.407511
 H         3.116159        -2.093516         0.198138
 H         1.829754        -0.853794        -2.934224
 H         3.668549         1.400670        -1.591305
 H         1.918201         1.365812        -2.228125
 H         0.962430         2.370780         0.759730
