19
Iteration:  1859
 C         0.097484        -0.582110         0.622962
 C         1.379973        -0.140987         0.183751
 C         2.850708        -0.079545         0.845401
 C         3.520088        -0.852403        -0.296110
 C         2.265850        -0.482060        -1.136799
 O         2.060592        -1.430564        -2.261631
 C         2.429623         1.037531        -1.368284
 C         2.089744         1.122333         0.170860
 O         1.561587         2.302633         0.856408
 H        -0.341707        -0.008859         1.515551
 H        -0.750268        -0.655526        -0.052237
 H         0.264172        -1.645475         0.845071
 H         3.056677         0.015135         1.924363
 H         4.423064        -0.313392        -0.689263
 H         3.647837        -1.919347        -0.110999
 H         2.354418        -1.007809        -3.141029
 H         3.437068         1.243974        -1.744637
 H         1.696892         1.739360        -1.843692
 H         2.302941         2.886967         0.636444
