19
Iteration:  2433
 C         0.047615        -0.795650         0.433614
 C         1.412988        -0.255213         0.040138
 C         2.706797        -0.000539         0.894768
 C         3.559154        -0.790265        -0.174521
 C         2.418137        -0.480247        -1.166315
 O         1.918351        -1.354231        -2.179634
 C         2.472413         1.047600        -1.316568
 C         2.117036         1.153489         0.177018
 O         1.747373         2.408209         0.735324
 H         0.141259        -1.038941         1.470598
 H        -0.709442        -0.012972         0.205588
 H        -0.259045        -1.812926         0.004842
 H         2.524033        -0.059068         2.029354
 H         4.577255        -0.381354        -0.441171
 H         3.623340        -1.828004         0.141225
 H         0.936321        -1.472410        -2.003785
 H         3.433371         1.612411        -1.530706
 H         1.612008         1.477543        -1.796237
 H         2.321161         2.674230         1.472858
