19
Iteration:  4886
 C        -0.050943        -0.575831         0.481469
 C         1.262178        -0.087965         0.047217
 C         2.614298        -0.040649         0.879429
 C         3.299222        -0.951602        -0.084551
 C         2.368653        -0.504650        -1.127385
 O         2.036742        -1.352521        -2.133527
 C         2.680381         0.996966        -1.375828
 C         2.083984         1.136239         0.046066
 O         2.044580         2.312774         0.814591
 H        -0.965399         0.041325         0.341790
 H        -0.210550        -1.565043        -0.017702
 H        -0.118334        -0.616903         1.568666
 H         2.695705        -0.011304         2.003698
 H         4.257439        -0.635034        -0.267480
 H         3.256605        -2.064117         0.106108
 H         1.563273        -0.982451        -2.896632
 H         3.668926         1.120550        -1.671837
 H         1.968044         1.476382        -2.107866
 H         1.164057         2.770643         0.762506
