19
Iteration:   268
 C        -0.033758        -0.581588         0.122755
 C         1.356218        -0.091134         0.018989
 C         2.571438        -0.132462         0.982628
 C         3.211228        -1.206004         0.086327
 C         2.458855        -0.443158        -1.077359
 O         1.961345        -1.320670        -2.115688
 C         2.807952         1.088245        -1.314160
 C         2.183804         1.227294         0.120742
 O         1.775356         2.432540         0.736582
 H        -0.515794        -0.480216         1.141899
 H        -0.719307        -0.216418        -0.717874
 H        -0.032192        -1.650622        -0.022812
 H         2.668228        -0.027061         2.066494
 H         4.335537        -1.260894         0.021366
 H         2.823787        -2.185161         0.235836
 H         2.450519        -1.201730        -2.910451
 H         3.875536         1.352566        -1.465460
 H         2.033037         1.460031        -1.982252
 H         2.280159         2.663312         1.533705
