19
Iteration:  4654
 C         0.001754        -0.571366         0.406139
 C         1.382948        -0.078627         0.095531
 C         2.677809        -0.092681         0.932656
 C         3.402820        -1.023115        -0.078610
 C         2.345688        -0.509666        -1.112599
 O         1.801849        -1.307388        -2.220046
 C         2.713158         1.012148        -1.367314
 C         2.193898         1.160126         0.153265
 O         1.834640         2.338834         0.807216
 H        -0.682541         0.158696        -0.147622
 H        -0.017262        -1.514244        -0.161302
 H        -0.335055        -0.469800         1.467451
 H         2.611476         0.145619         2.039768
 H         4.359809        -0.797987        -0.479589
 H         3.270974        -2.158815         0.068113
 H         2.317921        -2.118338        -2.292948
 H         3.713559         1.359482        -1.353868
 H         2.067631         1.650034        -1.965219
 H         1.549264         3.051219         0.198702
