19
Iteration:  2759
 C         0.011493        -0.624176         0.661455
 C         1.423268        -0.329598         0.238885
 C         2.744626        -0.074016         0.811719
 C         3.526068        -0.821098        -0.233800
 C         2.251184        -0.501406        -1.154009
 O         2.130635        -1.178067        -2.375626
 C         2.262863         1.028284        -1.427130
 C         2.096242         1.196202         0.112164
 O         1.747123         2.242838         0.892959
 H        -0.424853        -1.539986         0.374917
 H         0.059242        -0.588547         1.746366
 H        -0.580425         0.130565         0.253122
 H         3.048310         0.305391         1.762089
 H         4.492087        -0.418949        -0.559541
 H         3.381445        -1.892269        -0.058548
 H         2.604363        -1.984542        -2.458676
 H         3.222055         1.272653        -1.821849
 H         1.566908         1.523492        -2.099820
 H         2.451109         2.238729         1.579723
