19
Iteration:   166charge 0 multiplicity 1
 C        -0.149564        -0.312009         0.418297
 C         1.316322        -0.100599         0.016347
 C         2.582213        -0.107636         0.978804
 C         3.241054        -1.169561         0.013572
 C         2.427136        -0.578149        -1.140154
 O         2.414229        -1.261763        -2.387878
 C         2.663264         0.914505        -1.324130
 C         2.169894         1.162929         0.142936
 O         1.667529         2.380431         0.808904
 H        -0.496074         0.427822         1.133220
 H        -0.776574        -0.218928        -0.441504
 H        -0.495368        -1.244192         0.784016
 H         2.343467        -0.250320         2.067996
 H         4.323505        -1.151429         0.005606
 H         2.834699        -2.121436         0.262912
 H         1.808208        -2.068287        -2.308233
 H         3.584153         1.352171        -1.609470
 H         1.861315         1.286962        -2.004787
 H         2.374356         2.949765         1.208178
