19
Iteration:  3849
 C         0.023782        -0.771961         0.422414
 C         1.330497        -0.167836         0.140403
 C         2.648610        -0.206791         0.882374
 C         3.347158        -0.927129        -0.236058
 C         2.220480        -0.400901        -1.217505
 O         1.979140        -1.174615        -2.342629
 C         2.521388         1.127209        -1.269193
 C         2.116303         1.139687         0.191893
 O         2.044630         2.286814         0.994615
 H        -0.521193        -0.525291         1.372002
 H        -0.582841        -0.494247        -0.466519
 H        -0.002550        -1.899169         0.414164
 H         2.683619        -0.221028         1.937868
 H         4.417478        -0.728981        -0.752759
 H         3.419757        -2.050490        -0.068909
 H         1.158763        -0.750630        -2.666024
 H         3.458088         1.649829        -1.350387
 H         1.778850         1.692118        -1.832007
 H         2.973860         2.597690         1.124475
