19
Iteration:  1419
 C        -0.063019        -0.423569         0.545638
 C         1.351485        -0.142099         0.114560
 C         2.691388        -0.036793         0.910939
 C         3.418811        -0.783568        -0.286025
 C         2.335440        -0.556618        -1.170510
 O         2.177327        -1.465043        -2.251407
 C         2.541309         1.072524        -1.365041
 C         2.129992         1.097755         0.130195
 O         1.732672         2.257602         0.825989
 H        -0.368037         0.091883         1.495654
 H        -0.735514        -0.052109        -0.234477
 H        -0.325696        -1.594217         0.706429
 H         2.905825        -0.214746         1.986364
 H         4.488046        -0.413758        -0.521197
 H         3.491488        -1.809023        -0.087036
 H         1.366766        -1.918583        -2.158232
 H         3.630833         1.174086        -1.605693
 H         1.803092         1.714108        -1.969454
 H         1.983249         2.178194         1.740193
