19
Iteration:  3636
 C         0.095805        -0.825677         0.469927
 C         1.390860        -0.173790         0.145697
 C         2.796051        -0.197028         0.810711
 C         3.422419        -0.874666        -0.329782
 C         2.300966        -0.421510        -1.197847
 O         1.754734        -1.096681        -2.276079
 C         2.589498         1.097430        -1.224913
 C         2.137744         1.131256         0.256185
 O         1.831038         2.262969         0.902407
 H         0.065229        -1.162009         1.504899
 H        -0.779046        -0.210000         0.154197
 H         0.028355        -1.790826        -0.076272
 H         2.814497        -0.259487         1.898535
 H         4.523400        -0.807912        -0.556979
 H         3.288772        -1.923286        -0.192064
 H         1.562789        -0.509757        -3.008170
 H         3.547214         1.545347        -1.383652
 H         1.805423         1.626583        -1.786575
 H         2.622250         2.573017         1.378763
