19
Iteration:  3480charge 0 multiplicity 1
 C         0.113695        -0.765466         0.639046
 C         1.428518        -0.140000         0.130244
 C         2.813157        -0.225774         0.790928
 C         3.536798        -0.931884        -0.470371
 C         2.256110        -0.426132        -1.247966
 O         1.758515        -1.043249        -2.338054
 C         2.629835         1.243674        -1.238964
 C         2.150690         1.174391         0.202699
 O         1.653669         2.167127         0.988313
 H        -0.623641        -0.109219         1.210061
 H        -0.501761        -0.949954        -0.262830
 H         0.310183        -1.700570         1.166896
 H         3.016171        -0.368121         1.865015
 H         4.504817        -0.715370        -0.870680
 H         3.530908        -2.010409        -0.399212
 H         1.841354        -2.026268        -2.180245
 H         3.725671         1.500468        -1.336849
 H         1.922113         1.717987        -1.980573
 H         2.179388         2.118939         1.823163
