19
Iteration:  3764
 C        -0.001033        -0.484597         0.527050
 C         1.491431        -0.156740         0.207008
 C         2.836456        -0.188942         0.763140
 C         3.514377        -1.046183        -0.388434
 C         2.286116        -0.361129        -1.187668
 O         1.877974        -1.042259        -2.364210
 C         2.625165         1.036023        -1.219061
 C         2.169758         1.093941         0.221363
 O         1.633220         2.080154         0.951985
 H        -0.537610         0.458545         0.744403
 H        -0.588514        -0.941066        -0.239978
 H         0.055896        -1.205470         1.278525
 H         2.892368        -0.361427         1.808712
 H         4.370786        -0.717650        -0.745179
 H         3.536173        -2.146883        -0.234228
 H         1.008889        -1.462892        -2.127962
 H         3.578630         1.535691        -1.538816
 H         1.809001         1.526054        -1.822667
 H         2.285811         2.571607         1.500238
