19
Iteration:  1036
 C        -0.070320        -0.395525         0.347427
 C         1.401061        -0.108376         0.056186
 C         2.663805        -0.103492         0.864491
 C         3.450855        -0.993196        -0.030612
 C         2.357606        -0.498792        -1.150415
 O         2.024254        -1.187920        -2.245154
 C         2.714486         0.970695        -1.358869
 C         2.188742         1.117539         0.147070
 O         1.598832         2.140396         0.878377
 H        -0.244770         0.148078         1.231632
 H        -0.620580         0.085118        -0.451676
 H        -0.292258        -1.490168         0.343873
 H         2.809849         0.031232         1.963009
 H         4.506924        -0.767312        -0.266646
 H         3.336025        -2.085553         0.176724
 H         1.936959        -2.120876        -1.853252
 H         3.750745         1.134201        -1.451416
 H         2.018717         1.521560        -2.008240
 H         2.008002         3.006442         0.791045
