19
Iteration:  3362charge 0 multiplicity 1
 C         0.103034        -0.710506         0.588306
 C         1.362574        -0.268175         0.006937
 C         2.794651        -0.187870         0.807303
 C         3.499457        -0.805977        -0.365483
 C         2.257915        -0.439607        -1.247677
 O         1.859494        -1.158243        -2.331106
 C         2.402751         1.146314        -1.348567
 C         2.143089         1.120765         0.210437
 O         1.879406         2.228658         1.118489
 H         0.224490        -0.701107         1.681038
 H        -0.578702         0.132251         0.483620
 H        -0.142593        -1.672079         0.201994
 H         2.854949        -0.452269         1.855409
 H         4.492778        -0.272613        -0.611235
 H         3.804777        -1.810882        -0.102177
 H         2.364341        -1.029349        -3.134326
 H         3.329038         1.634065        -1.593376
 H         1.472164         1.465897        -1.865364
 H         1.251196         1.892379         1.781879
