19
Iteration:   708charge 0 multiplicity 1
 C         0.031725        -0.658698         0.427499
 C         1.327258        -0.094674        -0.045600
 C         2.452059        -0.036693         0.808233
 C         3.245936        -1.086713         0.001845
 C         2.392660        -0.490325        -1.147234
 O         2.135545        -1.210191        -2.343448
 C         2.755846         1.000277        -1.282896
 C         2.068239         1.258562         0.059657
 O         1.907069         2.349009         0.996294
 H        -0.256907        -0.305844         1.452752
 H        -0.996280        -0.528569        -0.242195
 H         0.137700        -1.738488         0.524825
 H         2.390427        -0.019813         1.900359
 H         4.328489        -1.016116        -0.023657
 H         2.758912        -2.098586         0.260454
 H         1.857267        -2.169014        -2.136373
 H         3.886055         1.240243        -1.283850
 H         2.301536         1.296841        -2.234714
 H         1.296941         3.001454         0.586734
