19
Iteration:  3588charge 0 multiplicity 1
 C         0.115647        -0.732802         0.528294
 C         1.385703        -0.132985         0.112043
 C         2.802273        -0.202415         0.838384
 C         3.441172        -1.003777        -0.339745
 C         2.343427        -0.359750        -1.244459
 O         1.818813        -1.029695        -2.315739
 C         2.498856         1.178515        -1.274513
 C         2.067703         1.137120         0.212172
 O         1.846911         2.210564         0.936049
 H         0.251949        -1.137689         1.556300
 H        -0.756869        -0.106392         0.420215
 H        -0.054175        -1.625679        -0.062355
 H         2.893956        -0.206120         1.938041
 H         4.583161        -0.772187        -0.620657
 H         3.501884        -2.140003        -0.269532
 H         1.773921        -2.004492        -2.071944
 H         3.439764         1.568791        -1.670530
 H         1.681234         1.551197        -1.902128
 H         1.831117         1.960467         1.876205
