19
Iteration:  2352
 C         0.094057        -0.661221         0.748089
 C         1.346591        -0.173558         0.104772
 C         2.687081        -0.199838         0.817985
 C         3.474084        -0.822941        -0.252241
 C         2.361787        -0.467729        -1.147968
 O         2.105620        -1.286508        -2.243563
 C         2.456767         1.093432        -1.295983
 C         2.085591         1.097556         0.155613
 O         1.697181         2.312985         0.689449
 H        -0.604387         0.127111         1.162782
 H        -0.625200        -1.142042         0.042437
 H         0.208378        -1.575062         1.351572
 H         2.743497        -0.190261         1.869516
 H         4.464481        -0.466215        -0.571114
 H         3.566552        -1.936304        -0.097913
 H         1.796068        -0.774303        -2.988062
 H         3.230650         1.633552        -1.773430
 H         1.558313         1.429376        -1.882683
 H         2.405120         2.649727         1.297144
