19
Iteration:   313charge 0 multiplicity 1
 C        -0.257321        -0.480141         0.360569
 C         1.178674        -0.123975         0.080170
 C         2.438702        -0.203718         1.017238
 C         3.334491        -0.967396         0.026008
 C         2.390368        -0.560804        -1.067414
 O         2.282936        -1.186061        -2.300161
 C         2.828074         0.939664        -1.246711
 C         2.165650         1.062900         0.117301
 O         1.873933         2.334202         0.673317
 H        -0.474694        -0.068571         1.361577
 H        -1.135787        -0.085743        -0.312186
 H        -0.505897        -1.491977         0.506549
 H         2.456572        -0.131214         2.115497
 H         4.398134        -0.708687        -0.102531
 H         3.265777        -2.058456         0.227525
 H         1.746474        -0.641207        -2.825419
 H         3.956349         1.094552        -1.294205
 H         2.172718         1.412961        -1.988171
 H         2.335533         2.876023         0.006528
