19
Iteration:   609
 C        -0.038025        -0.302092         0.190370
 C         1.405313        -0.085158         0.055456
 C         2.590821        -0.132024         0.933483
 C         3.423645        -0.958074        -0.125049
 C         2.358465        -0.475370        -1.121530
 O         2.076622        -1.346088        -2.192311
 C         2.762274         0.978384        -1.336754
 C         2.178915         1.121757         0.115168
 O         1.586480         2.201512         0.962148
 H        -0.526998         0.232927         1.009830
 H        -0.787637        -0.053719        -0.664742
 H        -0.221680        -1.310649         0.346090
 H         2.648678        -0.161505         2.015932
 H         4.441255        -0.645745        -0.420878
 H         3.324485        -2.098949        -0.001229
 H         1.620494        -2.151975        -1.787194
 H         3.863971         1.241130        -1.505731
 H         2.172137         1.388606        -2.144681
 H         2.335562         2.673608         1.414963
