19
Iteration:  2034charge 0 multiplicity 1
 C         0.041580        -0.665072         0.636887
 C         1.416900        -0.146529         0.216445
 C         2.774807        -0.090225         0.763935
 C         3.508731        -0.879895        -0.286576
 C         2.329206        -0.458135        -1.120558
 O         2.159022        -1.301629        -2.184482
 C         2.310900         1.059399        -1.312370
 C         2.121230         1.125542         0.161924
 O         1.664924         2.246843         0.774656
 H        -0.471053        -0.022341         1.419603
 H        -0.547260        -0.593042        -0.262387
 H        -0.059640        -1.622256         1.088323
 H         2.951312        -0.095651         1.824778
 H         4.443961        -0.602629        -0.819582
 H         3.483392        -1.972361        -0.196787
 H         1.805936        -0.825855        -2.959797
 H         3.239293         1.511527        -1.699723
 H         1.479666         1.217907        -2.020571
 H         2.113243         3.104242         0.587096
