19
Iteration:   194charge 0 multiplicity 1
 C        -0.169487        -0.369954         0.187124
 C         1.292327        -0.135873         0.064386
 C         2.564090        -0.170343         1.054046
 C         3.315857        -0.979286         0.013842
 C         2.378677        -0.519058        -1.060959
 O         2.294063        -1.213243        -2.272040
 C         2.549675         0.952913        -1.241334
 C         2.110311         1.043144         0.163912
 O         1.904455         2.319829         0.649980
 H        -0.536465         0.372976         0.904811
 H        -0.697001        -0.376151        -0.846317
 H        -0.579978        -1.403956         0.563064
 H         2.827130        -0.089644         2.103118
 H         4.371379        -0.644842        -0.020416
 H         3.250738        -2.142320         0.145576
 H         1.749364        -2.058992        -2.104794
 H         3.539130         1.468504        -1.519039
 H         1.737261         1.353727        -1.832816
 H         2.335663         2.530852         1.490858
