19
Iteration:    29charge 0 multiplicity 1
 C        -0.194866        -0.515376         0.031799
 C         1.265778        -0.072077        -0.048751
 C         2.459581        -0.188671         0.895176
 C         3.371391        -0.919188         0.012100
 C         2.375206        -0.406812        -1.154978
 O         2.117845        -1.525291        -2.082349
 C         2.764697         1.069663        -1.233501
 C         2.127741         1.179755         0.183816
 O         1.933912         2.352989         0.856802
 H        -0.439937         0.172524         0.932862
 H        -0.744320        -0.311156        -0.953687
 H        -0.467592        -1.592116         0.326125
 H         2.489606        -0.045237         1.982299
 H         4.404005        -0.499087         0.084732
 H         3.428547        -2.058941         0.137058
 H         1.255777        -1.707091        -1.786561
 H         3.862675         1.250591        -1.379844
 H         2.255919         1.630883        -2.037026
 H         2.755942         2.715002         1.186779
