19
Iteration:   652
 C        -0.115610        -0.605414         0.193191
 C         1.355731        -0.175620         0.152283
 C         2.609265        -0.201292         1.011712
 C         3.440499        -1.098484         0.005097
 C         2.419022        -0.525541        -1.057714
 O         2.070344        -1.146321        -2.348020
 C         2.538665         0.970480        -1.241037
 C         2.033539         1.170903         0.233318
 O         1.974324         2.541009         0.672387
 H        -0.652338        -0.111295         1.067870
 H        -0.731370        -0.127239        -0.705757
 H        -0.531806        -1.613608         0.185508
 H         2.572781        -0.269675         2.111279
 H         4.496463        -0.842657        -0.118499
 H         3.385283        -2.232610         0.159342
 H         2.161415        -2.112856        -2.505495
 H         3.584608         1.391420        -1.466432
 H         1.789375         1.306955        -1.940248
 H         1.509085         2.462679         1.566589
