19
Iteration:  2397
 C         0.173119        -0.774797         0.572299
 C         1.381393        -0.101134         0.118018
 C         2.789575         0.127651         0.806250
 C         3.435605        -0.980469        -0.198518
 C         2.318567        -0.506510        -1.126782
 O         1.999122        -1.209354        -2.222641
 C         2.596470         0.974437        -1.288402
 C         2.075007         1.227091         0.079191
 O         1.618089         2.263146         0.728504
 H        -0.131799        -0.378042         1.549882
 H        -0.816777        -0.608601         0.091614
 H         0.313311        -1.874640         0.484346
 H         2.928664         0.147430         1.874269
 H         4.455216        -0.801585        -0.516534
 H         3.403455        -2.057613         0.122503
 H         1.023858        -1.282196        -2.307827
 H         3.539886         1.430408        -1.408709
 H         1.936427         1.383157        -2.090426
 H         1.893953         2.165288         1.663524
