19
Iteration:  3407charge 0 multiplicity 1
 C         0.045021        -0.830694         0.503878
 C         1.419899        -0.312654         0.171065
 C         2.813257        -0.137883         0.750873
 C         3.389908        -0.883085        -0.420578
 C         2.221423        -0.353486        -1.158684
 O         2.009072        -1.135505        -2.308974
 C         2.371566         1.215527        -1.278479
 C         2.127857         1.155842         0.235172
 O         2.004104         2.202296         1.055757
 H        -0.441540        -0.291017         1.328327
 H        -0.623707        -0.772327        -0.364359
 H         0.148244        -1.865798         0.828619
 H         2.921004        -0.273499         1.854133
 H         4.373797        -0.641014        -0.932148
 H         3.326650        -1.992860        -0.368226
 H         1.170587        -0.760414        -2.613588
 H         3.313595         1.601845        -1.623277
 H         1.517054         1.703236        -1.723506
 H         1.092931         2.552096         1.144811
