19
Iteration:  4143charge 0 multiplicity 1
 C        -0.138903        -0.296949         0.483840
 C         1.318875        -0.051715         0.055674
 C         2.714364        -0.189289         0.845379
 C         3.422927        -1.016521        -0.164209
 C         2.332707        -0.529437        -1.212747
 O         2.049103        -1.255351        -2.348336
 C         2.556194         1.101287        -1.378204
 C         2.199365         1.041457         0.094080
 O         1.820441         2.187476         1.021942
 H        -0.803266        -0.392154        -0.344320
 H        -0.283762        -1.019426         1.278666
 H        -0.450556         0.642306         0.951513
 H         3.015922        -0.256958         1.951281
 H         4.404076        -0.683191        -0.588090
 H         3.226074        -2.071782        -0.059259
 H         2.090595        -2.179853        -2.047055
 H         3.634388         1.364419        -1.552915
 H         1.672475         1.567381        -1.767153
 H         2.374780         1.981138         1.816233
