19
Iteration:  4340charge 0 multiplicity 1
 C        -0.113093        -0.403393         0.486137
 C         1.362283        -0.166552         0.135463
 C         2.701944        -0.097295         0.896575
 C         3.369724        -1.047459        -0.125678
 C         2.307881        -0.494854        -1.173856
 O         2.012358        -1.347273        -2.287180
 C         2.664702         1.029141        -1.293369
 C         2.198348         1.157783         0.168650
 O         1.891427         2.296598         0.805388
 H        -0.219332        -0.996244         1.451755
 H        -0.626856         0.608247         0.636294
 H        -0.729800        -0.933302        -0.310226
 H         2.708796        -0.127700         1.922677
 H         4.424304        -1.017258        -0.527626
 H         3.066001        -2.057486         0.051200
 H         1.989040        -0.927175        -3.166627
 H         3.627618         1.359323        -1.708569
 H         2.011372         1.564524        -1.931072
 H         1.058188         2.176634         1.277537
