19
Iteration:   798charge 0 multiplicity 1
 C        -0.130640        -0.329994         0.326368
 C         1.388795        -0.209781         0.126344
 C         2.635006        -0.123888         1.031378
 C         3.426071        -0.950126        -0.018647
 C         2.350851        -0.467907        -1.148866
 O         2.081225        -1.267955        -2.347326
 C         2.617011         1.038688        -1.405882
 C         2.205671         1.023339         0.136341
 O         1.780258         2.258578         0.840636
 H        -0.625369         0.287241         1.036104
 H        -0.760663        -0.132379        -0.651307
 H        -0.368530        -1.315099         0.570305
 H         2.920219         0.206293         2.008977
 H         4.450206        -0.606523        -0.067853
 H         3.540816        -2.089322         0.064999
 H         2.230690        -2.223783        -2.164435
 H         3.523193         1.526186        -1.848750
 H         1.660780         1.314119        -1.975027
 H         1.397842         1.992027         1.676245
