19
Iteration:  3057charge 0 multiplicity 1
 C         0.119717        -0.903712         0.554624
 C         1.421165        -0.204208         0.142219
 C         2.766631        -0.181524         0.873452
 C         3.470634        -0.846282        -0.321442
 C         2.200976        -0.348011        -1.178329
 O         2.030763        -1.198367        -2.354079
 C         2.362028         1.156164        -1.360436
 C         2.093727         1.154371         0.239135
 O         1.801928         2.382629         0.891608
 H        -0.764490        -0.316408         0.816688
 H        -0.112264        -1.655143        -0.255515
 H         0.287861        -1.301350         1.587417
 H         3.202047        -0.216493         1.890450
 H         4.494409        -0.435331        -0.612412
 H         3.369795        -2.011790        -0.235507
 H         1.325858        -1.876563        -2.187963
 H         3.368546         1.483441        -1.698151
 H         1.459545         1.599248        -1.793434
 H         2.484678         2.444953         1.601326
