19
Iteration:   431
 C        -0.149255        -0.488083         0.054851
 C         1.306547        -0.099422         0.168363
 C         2.673099        -0.207629         1.063742
 C         3.397841        -1.077654         0.021105
 C         2.426790        -0.492926        -1.090368
 O         1.937601        -1.224503        -2.175037
 C         2.738037         0.994944        -1.278483
 C         2.237160         1.084011         0.252980
 O         1.784458         2.356678         0.719459
 H        -0.861691        -0.203474         0.914138
 H        -0.591810        -0.092308        -0.855589
 H        -0.302671        -1.564483         0.063210
 H         2.504815        -0.156085         2.162141
 H         4.514378        -0.794982        -0.137316
 H         3.383889        -2.124874         0.158048
 H         2.609682        -0.972294        -2.890229
 H         3.725816         1.399684        -1.466475
 H         1.839150         1.527125        -1.706413
 H         1.722830         2.876226        -0.133258
