19
Iteration:    57
 C        -0.132545        -0.521071        -0.082915
 C         1.299181        -0.036610         0.060065
 C         2.566391        -0.034785         0.960874
 C         3.384429        -1.011325         0.053704
 C         2.348523        -0.540069        -1.012568
 O         2.064124        -1.445441        -2.098453
 C         2.669354         1.008456        -1.305949
 C         2.143200         1.202006         0.129337
 O         1.928412         2.329191         0.872061
 H        -0.769691        -0.100075         0.711590
 H        -0.435176        -0.226440        -1.079740
 H        -0.151614        -1.568073        -0.034843
 H         2.406706         0.026317         2.055052
 H         4.437083        -0.680924        -0.183815
 H         3.407419        -1.975548         0.459584
 H         1.412401        -0.961173        -2.597611
 H         3.613902         1.410696        -1.675622
 H         1.858402         1.255698        -2.044626
 H         2.662289         2.446696         1.503341
