19
Iteration:   420charge 0 multiplicity 1
 C        -0.086444        -0.418052         0.082861
 C         1.407374        -0.208897         0.132725
 C         2.571446        -0.226829         1.063395
 C         3.403134        -1.021184        -0.008443
 C         2.367891        -0.527798        -1.047246
 O         1.959303        -1.262225        -2.229873
 C         2.707204         1.004210        -1.142646
 C         2.216579         1.087478         0.243199
 O         1.793640         2.378021         0.699922
 H        -0.550356         0.220736         0.881855
 H        -0.398138        -0.005439        -0.874075
 H        -0.341729        -1.477523         0.064256
 H         2.650311        -0.246655         2.179912
 H         4.451123        -0.589399        -0.138779
 H         3.389697        -2.063374         0.139693
 H         2.371195        -0.945314        -3.008039
 H         3.656019         1.311300        -1.566482
 H         1.984021         1.419240        -1.895550
 H         1.354828         2.820654        -0.062795
