19
Iteration:  1510
 C         0.047592        -0.693629         0.505587
 C         1.418979        -0.197062         0.065547
 C         2.699377        -0.021215         0.805541
 C         3.470432        -0.929086        -0.200850
 C         2.349978        -0.492203        -1.170899
 O         1.863535        -1.331635        -2.165976
 C         2.634032         1.080496        -1.293107
 C         2.045599         1.209420         0.093262
 O         1.706277         2.329778         0.820032
 H        -0.352447        -0.068574         1.310556
 H        -0.743192        -0.477419        -0.241941
 H         0.032522        -1.904304         0.707740
 H         2.820883         0.049038         1.896274
 H         4.513162        -0.636527        -0.380718
 H         3.361461        -2.069196         0.096422
 H         2.609497        -1.901063        -2.103790
 H         3.707236         1.311994        -1.161694
 H         2.160444         1.795312        -2.068539
 H         2.425255         3.021449         0.926530
