19
Iteration:  3763charge 0 multiplicity 1
 C         0.002904        -0.477542         0.534594
 C         1.490690        -0.162156         0.205349
 C         2.836983        -0.197597         0.766513
 C         3.507227        -1.038107        -0.385720
 C         2.278988        -0.360395        -1.197731
 O         1.882025        -1.047405        -2.362741
 C         2.624314         1.035559        -1.218471
 C         2.173514         1.082606         0.214163
 O         1.622990         2.085559         0.957747
 H        -0.510022         0.486104         0.728974
 H        -0.570908        -0.931204        -0.251613
 H         0.046593        -1.214478         1.275378
 H         2.903261        -0.364207         1.835530
 H         4.447930        -0.717332        -0.775888
 H         3.564233        -2.156171        -0.242831
 H         0.999391        -1.396975        -2.138438
 H         3.593463         1.539833        -1.522288
 H         1.813447         1.528666        -1.807104
 H         2.313293         2.597372         1.462581
