19
Iteration:  2758
 C         0.014539        -0.619377         0.672473
 C         1.424494        -0.331009         0.234901
 C         2.743639        -0.074596         0.806562
 C         3.527404        -0.819375        -0.229976
 C         2.251998        -0.509217        -1.155175
 O         2.124816        -1.180180        -2.380491
 C         2.272639         1.026735        -1.424067
 C         2.101509         1.188427         0.108567
 O         1.737288         2.251649         0.895276
 H        -0.407763        -1.522700         0.330668
 H         0.066505        -0.589559         1.735807
 H        -0.564384         0.130272         0.280510
 H         3.041209         0.286868         1.756271
 H         4.462954        -0.391150        -0.561112
 H         3.349525        -1.883666        -0.075360
 H         2.644601        -1.967032        -2.450849
 H         3.203654         1.261407        -1.820472
 H         1.593430         1.539736        -2.085376
 H         2.434972         2.226228         1.600478
