19
Iteration:  2924
 C         0.022869        -0.624742         0.739565
 C         1.335306        -0.273817         0.127473
 C         2.687956        -0.104174         0.745364
 C         3.556353        -0.705892        -0.247559
 C         2.294421        -0.498878        -1.224454
 O         2.144904        -1.232194        -2.399076
 C         2.278869         1.097235        -1.430651
 C         2.052838         1.141448         0.097100
 O         1.854918         2.195577         1.026142
 H         0.038837        -0.343557         1.782833
 H        -0.840440        -0.020036         0.356487
 H        -0.121498        -1.691094         0.596688
 H         2.849491        -0.017734         1.836276
 H         4.346754        -0.165848        -0.831917
 H         3.586840        -1.809114         0.026021
 H         2.162853        -2.230608        -2.314214
 H         3.068687         1.671374        -1.867460
 H         1.350304         1.420958        -1.949550
 H         2.479109         1.970889         1.753146
