19
Iteration:  1839
 C         0.099116        -0.661388         0.739840
 C         1.456943        -0.214616         0.121194
 C         2.798717        -0.048037         0.826620
 C         3.444249        -0.876803        -0.223911
 C         2.443471        -0.455889        -1.173081
 O         2.009603        -1.305654        -2.176885
 C         2.421497         1.108468        -1.362467
 C         2.185459         1.166236         0.057490
 O         1.534880         2.203536         0.735150
 H        -0.065968         0.028743         1.542403
 H        -0.700164        -0.411763         0.066292
 H        -0.198429        -1.715171         0.933380
 H         2.800469        -0.044219         1.937317
 H         4.463951        -0.768886        -0.576738
 H         3.191372        -1.953396         0.009091
 H         2.152602        -0.867844        -3.014949
 H         3.310458         1.550186        -1.808543
 H         1.569264         1.461985        -1.996528
 H         2.227164         2.702699         1.257533
