19
Iteration:   198
 C        -0.201595        -0.379641         0.150988
 C         1.286361        -0.177746         0.051706
 C         2.588674        -0.147465         1.023445
 C         3.336060        -0.934393         0.007927
 C         2.377321        -0.538104        -1.067751
 O         2.243581        -1.208865        -2.236910
 C         2.599094         0.943892        -1.234559
 C         2.082113         1.035729         0.184824
 O         1.925370         2.335792         0.663144
 H        -0.546532         0.357978         0.862231
 H        -0.624374        -0.305175        -0.819900
 H        -0.532761        -1.470812         0.566861
 H         2.636806        -0.069622         2.154050
 H         4.374678        -0.647982        -0.180151
 H         3.347289        -2.048940         0.120855
 H         1.859355        -2.029502        -2.026449
 H         3.543097         1.388728        -1.434516
 H         1.775620         1.286272        -1.902739
 H         2.316653         2.455958         1.545042
