19
Iteration:  3329
 C         0.040562        -0.711515         0.635869
 C         1.547702        -0.299446         0.283740
 C         3.009264        -0.183108         0.827573
 C         3.454720        -0.984503        -0.412652
 C         2.328045        -0.372128        -1.231454
 O         1.795710        -0.976322        -2.364912
 C         2.441964         1.187580        -1.295974
 C         2.196619         1.074157         0.253464
 O         1.626020         2.211127         0.863566
 H        -0.158297        -1.289786         1.500959
 H        -0.545866         0.155426         0.446908
 H        -0.434457        -1.295448        -0.121885
 H         3.301819        -0.302075         1.841728
 H         4.508350        -0.881555        -0.901185
 H         3.340687        -2.020101        -0.101246
 H         2.557640        -1.555971        -2.661585
 H         3.297797         1.756145        -1.453278
 H         1.658040         1.718713        -1.851266
 H         1.154631         2.006350         1.704066
