19
Iteration:  4380
 C        -0.046408        -0.389836         0.504128
 C         1.407062        -0.135171         0.087305
 C         2.715000        -0.161663         0.925074
 C         3.382410        -1.043290        -0.105710
 C         2.310703        -0.486637        -1.121530
 O         1.964545        -1.258584        -2.251938
 C         2.738365         1.039289        -1.296541
 C         2.222288         1.116466         0.025298
 O         1.791074         2.208804         0.805573
 H        -0.245466        -1.410644         0.743516
 H        -0.339273         0.282874         1.281206
 H        -0.630248        -0.027694        -0.344449
 H         2.728012        -0.178099         1.991864
 H         4.426809        -0.847586        -0.286961
 H         3.103164        -2.122787         0.174052
 H         1.028293        -1.091299        -2.457755
 H         3.785053         1.324202        -1.382149
 H         1.893460         1.494222        -1.978531
 H         1.079796         2.667521         0.296617
