19
Iteration:  4589
 C        -0.089394        -0.408219         0.477355
 C         1.331433        -0.195545         0.032666
 C         2.621464        -0.108707         0.959318
 C         3.368986        -0.953042        -0.111318
 C         2.303549        -0.538029        -1.162664
 O         2.174896        -1.348599        -2.267492
 C         2.502459         1.003711        -1.383684
 C         2.133422         1.077378         0.093623
 O         2.002885         2.407394         0.860593
 H        -0.715907         0.426794         0.203541
 H        -0.660731        -1.217437         0.079669
 H        -0.079109        -0.429147         1.571977
 H         2.959077         0.015692         2.003992
 H         4.374651        -0.697576        -0.468547
 H         3.285659        -2.113899         0.056847
 H         1.487676        -1.999841        -1.983591
 H         3.481168         1.303814        -1.711917
 H         1.584343         1.327687        -1.964941
 H         1.054869         2.485338         0.967211
