19
Iteration:  1409charge 0 multiplicity 1
 C        -0.008260        -0.452361         0.492519
 C         1.337227        -0.149704         0.047053
 C         2.687429        -0.064656         0.893075
 C         3.431400        -0.837031        -0.137197
 C         2.297887        -0.467132        -1.239096
 O         2.145832        -1.481529        -2.234883
 C         2.517824         1.087592        -1.353123
 C         2.117625         1.155637         0.130818
 O         1.768923         2.265541         0.851569
 H        -0.194986         0.114632         1.438017
 H        -0.824595        -0.195935        -0.186062
 H        -0.044416        -1.673338         0.707648
 H         2.908065        -0.072965         1.987403
 H         4.439943        -0.401315        -0.485544
 H         3.465170        -1.904185        -0.038493
 H         1.348998        -2.016023        -2.018581
 H         3.535777         1.423359        -1.763027
 H         1.726964         1.442389        -2.126006
 H         2.092874         2.042082         1.713482
