19
Iteration:  1884charge 0 multiplicity 1
 C         0.034235        -0.647518         0.566784
 C         1.402921        -0.380120         0.184538
 C         2.738468         0.010467         0.771125
 C         3.632420        -0.738285        -0.244128
 C         2.344787        -0.468832        -1.119550
 O         1.986939        -1.386568        -2.205755
 C         2.398489         1.035112        -1.353744
 C         2.042804         1.153349         0.128645
 O         1.736927         2.291692         0.880438
 H        -0.339959         0.031164         1.254681
 H        -0.658288        -0.649395        -0.251725
 H        -0.143894        -1.730921         0.828204
 H         2.952854        -0.025492         1.852973
 H         4.575110        -0.271624        -0.428029
 H         3.606925        -1.786127         0.192280
 H         1.915964        -1.007149        -3.109138
 H         3.246376         1.569913        -1.799077
 H         1.499128         1.339273        -1.947627
 H         2.291599         3.038818         0.528607
