19
Iteration:  2499
 C         0.125485        -0.551864         0.546174
 C         1.401912        -0.156736         0.081763
 C         2.708432         0.009580         0.825267
 C         3.549725        -0.863009        -0.102116
 C         2.397170        -0.595319        -1.163615
 O         2.005126        -1.369974        -2.231316
 C         2.390186         1.044037        -1.332077
 C         2.057364         1.146493         0.072052
 O         1.680444         2.208477         0.880479
 H         0.088701        -0.602533         1.629449
 H        -0.707248         0.032421         0.093874
 H        -0.178365        -1.620423         0.362125
 H         2.656147         0.148450         1.948345
 H         4.461681        -0.426023        -0.537925
 H         3.568253        -1.887002         0.200553
 H         2.257798        -0.747958        -2.942210
 H         3.278768         1.594985        -1.674903
 H         1.625955         1.202844        -2.048757
 H         2.071251         3.048885         0.569835
