19
Iteration:   210
 C        -0.224655        -0.425046         0.102261
 C         1.274466        -0.266097         0.071174
 C         2.534721        -0.082088         0.937873
 C         3.484979        -0.927833        -0.011815
 C         2.366395        -0.527037        -1.036160
 O         2.102376        -1.254441        -2.212734
 C         2.682636         0.952872        -1.210280
 C         2.097197         1.113024         0.160326
 O         1.936369         2.380348         0.731227
 H        -0.757386         0.275008         0.781546
 H        -0.644209        -0.228132        -0.848496
 H        -0.566402        -1.490441         0.399521
 H         2.410372        -0.209638         2.044747
 H         4.479668        -0.536602        -0.285890
 H         3.455036        -1.944827         0.317902
 H         2.086755        -2.243605        -1.993849
 H         3.699056         1.155508        -1.420147
 H         2.086296         1.448417        -2.022221
 H         2.207311         2.284132         1.677451
