19
Iteration:  2778charge 0 multiplicity 1
 C        -0.030517        -0.651695         0.609632
 C         1.362273        -0.219293         0.173586
 C         2.823527        -0.030265         0.809057
 C         3.513808        -0.816161        -0.251007
 C         2.373332        -0.473477        -1.184275
 O         2.128237        -1.189571        -2.335129
 C         2.262855         1.053615        -1.349291
 C         2.030284         1.066371         0.144677
 O         1.811041         2.243048         0.905182
 H        -0.028656        -1.744994         0.472026
 H        -0.247855        -0.317116         1.603338
 H        -0.771542        -0.297247        -0.111006
 H         2.951908        -0.111216         1.863160
 H         4.408945        -0.373429        -0.661087
 H         3.401664        -1.893319        -0.039061
 H         1.977071        -2.080041        -1.989141
 H         2.917377         1.698573        -1.891192
 H         1.265187         1.206204        -1.784494
 H         2.733465         2.484160         1.096476
