19
Iteration:   976
 C        -0.140038        -0.430742         0.346813
 C         1.271847        -0.196297         0.130332
 C         2.644401        -0.099214         1.016078
 C         3.472287        -0.925009        -0.139689
 C         2.316641        -0.504674        -1.100383
 O         2.160092        -1.195580        -2.299362
 C         2.543339         0.936999        -1.324109
 C         2.165646         1.112886         0.141215
 O         1.794978         2.223466         0.820240
 H        -0.555196         0.254184         1.127344
 H        -0.627817        -0.102826        -0.579571
 H        -0.554029        -1.367146         0.639799
 H         2.757865        -0.113885         2.093322
 H         4.421113        -0.527278        -0.626518
 H         3.469651        -1.994444         0.024685
 H         2.214772        -2.131746        -2.150426
 H         3.539956         1.341680        -1.700610
 H         1.818602         1.396206        -1.994279
 H         2.604081         2.641871         1.101207
