19
Iteration:  2769
 C        -0.018558        -0.651209         0.608441
 C         1.389963        -0.274506         0.219161
 C         2.786875        -0.012773         0.847619
 C         3.499907        -0.829314        -0.270103
 C         2.298346        -0.454152        -1.162457
 O         2.149310        -1.163712        -2.348178
 C         2.246612         1.056965        -1.409377
 C         2.037739         1.099565         0.091235
 O         1.818416         2.218011         0.899208
 H        -0.285705        -1.670635         0.528333
 H        -0.199036        -0.424037         1.647650
 H        -0.730215        -0.044711         0.162247
 H         3.055521         0.042244         1.886693
 H         4.526369        -0.624364        -0.561117
 H         3.675010        -1.861498         0.033775
 H         2.265800        -2.102566        -2.151078
 H         3.090116         1.501353        -1.822996
 H         1.310292         1.164149        -1.951159
 H         2.576038         2.513291         1.420628
