19
Iteration:  4144charge 0 multiplicity 1
 C        -0.135196        -0.299025         0.487585
 C         1.315346        -0.059451         0.051963
 C         2.713895        -0.181769         0.843862
 C         3.421429        -1.019284        -0.166156
 C         2.335054        -0.524501        -1.196806
 O         2.043864        -1.257695        -2.355810
 C         2.561433         1.097945        -1.382132
 C         2.199639         1.041741         0.103641
 O         1.821396         2.187444         1.020928
 H        -0.800605        -0.365507        -0.352845
 H        -0.319867        -1.020759         1.273623
 H        -0.433128         0.632730         0.950719
 H         2.982230        -0.252503         1.929528
 H         4.428329        -0.682253        -0.573183
 H         3.217694        -2.056386        -0.072166
 H         2.132096        -2.170754        -2.046571
 H         3.623594         1.392643        -1.583147
 H         1.671848         1.570272        -1.774595
 H         2.374208         1.979940         1.806047
