19
Iteration:   212charge 0 multiplicity 1
 C        -0.221082        -0.444045         0.101424
 C         1.284735        -0.259167         0.075917
 C         2.509807        -0.078392         0.929675
 C         3.508271        -0.942281        -0.013904
 C         2.362131        -0.527736        -1.029255
 O         2.075604        -1.271567        -2.217350
 C         2.690551         0.959751        -1.211157
 C         2.108903         1.135592         0.140712
 O         1.932665         2.386323         0.751165
 H        -0.771005         0.246467         0.811515
 H        -0.655914        -0.279393        -0.884429
 H        -0.616285        -1.390510         0.303880
 H         2.473401        -0.225479         2.017369
 H         4.525696        -0.500112        -0.219786
 H         3.471711        -1.897042         0.355398
 H         2.131360        -2.268227        -2.003349
 H         3.744568         1.124503        -1.408241
 H         2.142767         1.508282        -2.013059
 H         2.165363         2.297708         1.686009
