19
Iteration:  2307
 C         0.015654        -0.569356         0.551921
 C         1.347489        -0.091568         0.302673
 C         2.830648        -0.011058         0.804153
 C         3.540649        -0.910510        -0.285411
 C         2.434791        -0.492415        -1.240184
 O         2.106630        -1.397469        -2.268692
 C         2.295380         1.051305        -1.382001
 C         2.084565         1.123073         0.116156
 O         1.650867         2.226299         0.977848
 H        -0.646460         0.375714         0.791855
 H        -0.366907        -1.168561        -0.319329
 H        -0.011631        -1.356261         1.319978
 H         3.205127        -0.147100         1.848811
 H         4.595997        -0.663487        -0.552382
 H         3.546436        -1.917261         0.194611
 H         1.729526        -0.963041        -3.009872
 H         3.049383         1.635606        -1.901636
 H         1.412781         1.466525        -1.936455
 H         2.433356         2.845139         0.929140
