19
Iteration:  3743charge 0 multiplicity 1
 C         0.038348        -0.421739         0.556362
 C         1.515360        -0.311467         0.095105
 C         2.790254        -0.260915         0.838639
 C         3.485146        -0.926991        -0.354766
 C         2.333159        -0.438657        -1.203077
 O         1.867832        -1.180219        -2.398659
 C         2.548692         1.186597        -1.258176
 C         2.187684         1.061515         0.314927
 O         1.654272         2.088250         0.994915
 H        -0.295545         0.585645         0.893475
 H        -0.764877        -0.704376        -0.122769
 H        -0.031156        -1.124605         1.363726
 H         3.166120        -0.430599         1.814693
 H         4.393750        -0.590163        -0.574710
 H         3.295177        -2.001938        -0.261520
 H         1.172873        -0.616859        -2.794054
 H         3.568357         1.453764        -1.630345
 H         1.892809         1.832870        -1.909058
 H         2.122289         2.962179         0.927119
