19
Iteration:  3200charge 0 multiplicity 1
 C         0.139039        -0.769485         0.510718
 C         1.473165        -0.279822         0.143127
 C         2.794188        -0.117540         0.832718
 C         3.556142        -0.859139        -0.314427
 C         2.344070        -0.382588        -1.179787
 O         1.788338        -1.107275        -2.289746
 C         2.391763         1.105136        -1.314295
 C         2.062481         1.105392         0.223267
 O         1.754458         2.170090         1.004545
 H        -0.308540        -1.579765        -0.087033
 H         0.220797        -1.293783         1.506067
 H        -0.612924         0.081341         0.493687
 H         3.033164         0.019631         1.880870
 H         4.565474        -0.478622        -0.587191
 H         3.608360        -1.979577        -0.239846
 H         2.140366        -0.609245        -3.031927
 H         3.482171         1.327936        -1.672587
 H         1.624151         1.459516        -2.001433
 H         2.080286         2.990947         0.609223
