19
Iteration:  1312charge 0 multiplicity 1
 C         0.107276        -0.681944         0.481470
 C         1.373275        -0.160087         0.049016
 C         2.636205        -0.073828         0.937667
 C         3.364249        -1.005039        -0.061591
 C         2.414877        -0.475854        -1.142854
 O         1.837998        -1.214478        -2.237968
 C         2.658304         1.096700        -1.283163
 C         2.138700         1.164514         0.043264
 O         1.796806         2.318082         0.770267
 H        -0.136809        -0.233830         1.418569
 H        -0.669492        -0.707467        -0.267805
 H         0.184434        -1.750518         0.715318
 H         2.395684        -0.185411         2.015130
 H         4.454782        -0.951566        -0.124500
 H         3.158040        -2.046938         0.329518
 H         2.618865        -1.727680        -2.489605
 H         3.549422         1.729574        -1.362456
 H         1.917135         1.358062        -2.117046
 H         1.710607         3.061837         0.190024
