19
Iteration:  3065charge 0 multiplicity 1
 C         0.103252        -0.868554         0.587174
 C         1.361347        -0.178513         0.232581
 C         2.754459        -0.188817         0.835970
 C         3.470089        -0.786274        -0.306848
 C         2.266195        -0.421069        -1.251489
 O         2.071060        -1.231645        -2.365062
 C         2.300367         1.148910        -1.322998
 C         2.060097         1.165222         0.186619
 O         1.884791         2.337552         0.897513
 H        -0.781175        -0.165886         0.598345
 H        -0.224245        -1.701380        -0.151945
 H         0.323857        -1.386127         1.557725
 H         3.055332        -0.382670         1.860046
 H         4.314958        -0.253561        -0.476887
 H         3.389874        -1.854845        -0.425040
 H         1.425801        -1.997706        -2.250072
 H         3.179105         1.863903        -1.527956
 H         1.439983         1.798393        -1.806745
 H         2.456424         2.512606         1.675576
