19
Iteration:  1683charge 0 multiplicity 1
 C         0.113399        -0.613806         0.551830
 C         1.452212        -0.188028         0.166970
 C         2.705905        -0.117678         0.910557
 C         3.535960        -0.856949        -0.180668
 C         2.332238        -0.497923        -1.123106
 O         1.879805        -1.334151        -2.309868
 C         2.532813         1.093475        -1.331437
 C         2.181866         1.192899         0.171072
 O         1.665972         2.353610         0.723890
 H        -0.170988        -0.138826         1.625081
 H        -0.539242        -0.436477        -0.323682
 H         0.035947        -1.731735         0.853942
 H         2.852232        -0.319550         1.993423
 H         4.573312        -0.474815        -0.530936
 H         3.625533        -1.955399        -0.193306
 H         2.477893        -2.175740        -2.206947
 H         3.481775         1.599780        -1.721649
 H         1.586936         1.508453        -1.929838
 H         0.747912         2.248077         0.933474
