19
Iteration:  4606charge 0 multiplicity 1
 C        -0.146772        -0.432158         0.431264
 C         1.351495        -0.133348         0.199963
 C         2.626482        -0.098218         0.885590
 C         3.453762        -0.942736        -0.078661
 C         2.331430        -0.548694        -1.150999
 O         2.109990        -1.345866        -2.322960
 C         2.471730         0.963744        -1.364991
 C         2.150563         1.180885         0.174232
 O         2.027285         2.323217         0.803800
 H        -0.861854         0.427412         0.156459
 H        -0.279260        -1.306043        -0.272308
 H        -0.378023        -0.619879         1.513161
 H         2.665973        -0.140431         1.946042
 H         4.524697        -0.643134        -0.098734
 H         3.346584        -1.936999         0.197164
 H         1.442885        -2.063870        -2.167811
 H         3.410949         1.370698        -1.872832
 H         1.616952         1.298776        -1.938193
 H         1.130112         2.673941         0.796054
