19
Iteration:  3918charge 0 multiplicity 1
 C        -0.027370        -0.379574         0.522622
 C         1.395437        -0.202339         0.061446
 C         2.830758        -0.167189         0.798043
 C         3.462996        -1.038262        -0.332784
 C         2.324738        -0.479778        -1.193741
 O         1.801698        -1.125670        -2.306821
 C         2.721072         1.073405        -1.281967
 C         2.221775         1.082562         0.273720
 O         1.598396         2.134313         0.994619
 H        -0.045083        -0.787630         1.554481
 H        -0.540114         0.578922         0.489409
 H        -0.629183        -1.077632        -0.019828
 H         2.745660        -0.428194         1.890868
 H         4.542264        -0.693159        -0.726643
 H         3.495601        -2.159002        -0.097311
 H         2.547109        -1.535237        -2.819419
 H         3.736825         1.279067        -1.640755
 H         1.993166         1.728819        -1.840288
 H         2.243685         2.857164         1.151172
