19
Iteration:  3710charge 0 multiplicity 1
 C        -0.017673        -0.465210         0.576075
 C         1.383894        -0.221515         0.146658
 C         2.766958        -0.231625         0.771120
 C         3.465832        -0.955749        -0.370538
 C         2.315840        -0.415938        -1.188377
 O         1.922854        -1.117524        -2.368945
 C         2.422988         1.106375        -1.320288
 C         2.159782         1.121465         0.206572
 O         1.816868         2.070416         1.114187
 H        -0.358359         0.371689         1.258555
 H        -0.697843        -0.581470        -0.257519
 H        -0.021617        -1.374672         1.151307
 H         3.121737        -0.346110         1.800642
 H         4.462783        -0.628433        -0.690224
 H         3.528623        -2.067176        -0.287432
 H         2.841256        -1.127175        -2.701199
 H         3.385984         1.441820        -1.721926
 H         1.543738         1.431396        -1.927763
 H         2.037781         2.944566         0.716618
