19
Iteration:  2356
 C         0.096838        -0.677114         0.743984
 C         1.367557        -0.157115         0.120198
 C         2.667378        -0.216744         0.841490
 C         3.481503        -0.880251        -0.246920
 C         2.381066        -0.424761        -1.173316
 O         2.092756        -1.318289        -2.256885
 C         2.447895         1.118653        -1.268450
 C         2.093183         1.122564         0.128333
 O         1.678498         2.338126         0.677765
 H        -0.449095         0.062313         1.294461
 H        -0.549423        -1.121745        -0.065446
 H         0.240843        -1.557094         1.436087
 H         2.760615        -0.235975         1.944754
 H         4.451077        -0.401341        -0.465997
 H         3.524824        -1.972351        -0.220564
 H         1.679807        -0.805648        -3.021311
 H         3.336456         1.613914        -1.762319
 H         1.585596         1.435834        -1.851455
 H         2.312440         2.610344         1.339618
