19
Iteration:  1584charge 0 multiplicity 1
 C        -0.023471        -0.765023         0.484092
 C         1.361172        -0.143868         0.224009
 C         2.719779        -0.058416         0.844878
 C         3.465339        -0.862308        -0.210472
 C         2.361651        -0.433675        -1.181387
 O         2.092041        -1.402327        -2.215655
 C         2.419415         1.079641        -1.221340
 C         2.065395         1.150529         0.163160
 O         1.862542         2.409840         0.663749
 H        -0.382850        -0.298724         1.448131
 H        -0.704919        -0.511643        -0.320998
 H        -0.054015        -1.853549         0.620205
 H         2.924892         0.135317         1.909970
 H         4.595419        -0.807577        -0.229306
 H         3.293298        -1.886436         0.005515
 H         1.271929        -1.126723        -2.746083
 H         3.415922         1.386658        -1.612405
 H         1.753808         1.498803        -2.023638
 H         1.849324         2.314808         1.649440
