19
Iteration:  2877charge 0 multiplicity 1
 C         0.150775        -0.784938         0.604455
 C         1.418169        -0.176132         0.160882
 C         2.903080        -0.079906         0.866672
 C         3.494409        -0.972087        -0.283411
 C         2.277087        -0.477831        -1.161525
 O         1.866935        -1.062674        -2.326431
 C         2.486984         1.138025        -1.276949
 C         2.162259         1.144581         0.213249
 O         1.577774         2.242017         0.763478
 H         0.275428        -1.214553         1.648105
 H        -0.694733        -0.057280         0.663153
 H        -0.052526        -1.614615        -0.100204
 H         3.034030        -0.226326         1.968785
 H         4.434064        -0.567369        -0.616573
 H         3.438761        -2.051139        -0.038720
 H         2.089560        -2.024921        -2.334438
 H         3.406365         1.532752        -1.755020
 H         1.625081         1.561307        -1.842425
 H         2.262353         2.872877         1.040031
