19
Iteration:   404charge 0 multiplicity 1
 C        -0.060516        -0.273637         0.143585
 C         1.332250        -0.284466         0.029573
 C         2.584577        -0.131755         0.940138
 C         3.445748        -0.955874        -0.010278
 C         2.422708        -0.558476        -1.107654
 O         2.029271        -1.303805        -2.177900
 C         2.690743         0.911927        -1.195475
 C         2.115702         1.066441         0.225626
 O         1.806720         2.328383         0.782481
 H        -0.281200         0.413997         0.947884
 H        -0.567740        -0.004731        -0.813454
 H        -0.536505        -1.287280         0.355542
 H         2.450171        -0.270110         2.008475
 H         4.496463        -0.769608        -0.176711
 H         3.241345        -2.020990         0.367254
 H         2.290984        -0.696102        -2.911984
 H         3.764715         1.273869        -1.233691
 H         2.141470         1.561732        -1.896760
 H         0.915979         2.675762         0.492906
