19
Iteration:  2416
 C         0.092333        -0.824848         0.534621
 C         1.414260        -0.248506         0.135086
 C         2.716386        -0.026080         0.856803
 C         3.520710        -0.815392        -0.048741
 C         2.363053        -0.477830        -1.112722
 O         1.900081        -1.241742        -2.225112
 C         2.604367         1.102832        -1.450390
 C         2.076729         1.204502         0.007824
 O         1.680978         2.323166         0.775216
 H        -0.110935        -0.748625         1.666094
 H        -0.685588        -0.180817         0.127411
 H         0.117185        -1.794344         0.056563
 H         2.965388         0.166413         1.868557
 H         4.585275        -0.649107        -0.288767
 H         3.569013        -1.897113         0.193844
 H         0.891740        -1.270400        -2.085997
 H         3.670667         1.213668        -1.715269
 H         1.815678         1.280866        -2.224856
 H         2.085910         2.179228         1.634387
