19
Iteration:  4913
 C        -0.021655        -0.587879         0.493573
 C         1.308051        -0.111305         0.008316
 C         2.649392         0.013791         0.893787
 C         3.310008        -1.028679        -0.084319
 C         2.297197        -0.551291        -1.133180
 O         2.033435        -1.450858        -2.223154
 C         2.657310         1.066414        -1.339497
 C         2.168476         1.184172         0.095674
 O         1.954530         2.407714         0.895049
 H        -0.993926         0.011128         0.363416
 H        -0.271622        -1.435908        -0.218128
 H        -0.239038        -0.777254         1.642281
 H         2.396560        -0.041529         1.923332
 H         4.482119        -0.880741        -0.364504
 H         3.279414        -2.081448         0.139693
 H         1.351443        -1.227116        -2.894355
 H         3.772516         1.174624        -1.698903
 H         1.964450         1.543067        -2.021382
 H         1.696995         3.151642         0.285793
