19
Iteration:  1732
 C         0.046695        -0.792933         0.477176
 C         1.429302        -0.166617         0.224966
 C         2.749044         0.076119         0.844285
 C         3.461505        -0.808519        -0.179664
 C         2.296554        -0.528505        -1.182825
 O         2.061126        -1.335535        -2.215541
 C         2.369409         1.012160        -1.458824
 C         2.084326         1.224808         0.094783
 O         1.834296         2.292837         0.937801
 H        -0.522678        -0.606358         1.316424
 H        -0.490594        -0.507463        -0.465739
 H         0.226318        -1.917530         0.643465
 H         2.913660         0.283193         1.919291
 H         4.467099        -0.502523        -0.383125
 H         3.530111        -1.874209         0.307600
 H         1.173158        -1.626021        -2.267985
 H         3.358069         1.267958        -1.871369
 H         1.501335         1.338360        -1.999431
 H         1.940433         3.201129         0.522524
