19
Iteration:  3712charge 0 multiplicity 1
 C        -0.010772        -0.452696         0.600755
 C         1.397330        -0.205130         0.125639
 C         2.762642        -0.233612         0.768729
 C         3.459566        -0.957714        -0.368067
 C         2.330363        -0.435562        -1.194218
 O         1.916952        -1.117925        -2.360074
 C         2.424606         1.106173        -1.315052
 C         2.156638         1.111503         0.237806
 O         1.810304         2.061805         1.097511
 H        -0.421092         0.413555         1.171196
 H        -0.690102        -0.576572        -0.275444
 H        -0.035298        -1.423784         1.124386
 H         3.090050        -0.315970         1.769221
 H         4.561619        -0.559332        -0.727996
 H         3.507488        -2.060973        -0.310290
 H         2.831024        -1.071478        -2.780887
 H         3.347972         1.452579        -1.740250
 H         1.570422         1.478013        -1.913703
 H         2.008765         2.929143         0.739165
