19
Iteration:  3837charge 0 multiplicity 1
 C        -0.053890        -0.847082         0.409033
 C         1.337526        -0.187857         0.149324
 C         2.642398        -0.196465         0.876505
 C         3.358524        -0.899483        -0.309585
 C         2.240762        -0.352014        -1.160167
 O         1.952394        -1.185392        -2.285471
 C         2.506145         1.173358        -1.290723
 C         2.142232         1.146126         0.222219
 O         2.063011         2.286194         0.998194
 H        -0.534480        -0.208420         1.203732
 H        -0.768679        -0.752537        -0.455100
 H         0.118843        -1.938303         0.672935
 H         2.817679        -0.290902         1.947727
 H         4.504473        -0.584458        -0.452766
 H         3.050483        -1.971405        -0.338207
 H         1.698936        -0.754192        -3.144398
 H         3.546954         1.177367        -1.623102
 H         1.913658         1.703961        -2.003068
 H         2.980088         2.541646         1.151224
