19
Iteration:  2929charge 0 multiplicity 1
 C         0.031853        -0.605202         0.725727
 C         1.293902        -0.250935         0.128097
 C         2.696877        -0.083215         0.721937
 C         3.568483        -0.732303        -0.254435
 C         2.286573        -0.509629        -1.203164
 O         2.150285        -1.228241        -2.403483
 C         2.239873         1.105705        -1.363314
 C         2.082763         1.179754         0.110675
 O         1.858031         2.139357         1.004403
 H         0.027223        -0.158186         1.759428
 H        -0.860412        -0.179114         0.275509
 H        -0.077187        -1.702931         0.574512
 H         2.769487         0.095966         1.788339
 H         4.436697        -0.279873        -0.813620
 H         3.797186        -1.787858        -0.000722
 H         2.184435        -2.184642        -2.315462
 H         3.053158         1.666108        -1.955333
 H         1.320381         1.242003        -1.944938
 H         2.472232         2.033589         1.736336
