19
Iteration:   498charge 0 multiplicity 1
 C        -0.110354        -0.644968         0.337924
 C         1.206688        -0.073151        -0.075012
 C         2.418024        -0.140715         0.935823
 C         3.248561        -1.052656        -0.046607
 C         2.340803        -0.457614        -1.132809
 O         2.106661        -1.250180        -2.171442
 C         2.833255         1.047662        -1.236441
 C         2.220322         1.198356         0.132748
 O         1.886066         2.366819         0.746930
 H        -0.313875        -0.172574         1.326653
 H        -0.861914        -0.339365        -0.476569
 H         0.022550        -1.685007         0.301758
 H         2.332285        -0.150782         2.029956
 H         4.322449        -0.841674        -0.362117
 H         3.092812        -2.144149         0.157282
 H         2.845192        -1.819838        -2.309271
 H         3.906785         1.325874        -1.458628
 H         2.184769         1.677013        -1.888059
 H         2.352283         2.341275         1.589692
