19
Iteration:   457charge 0 multiplicity 1
 C        -0.008221        -0.631517         0.075609
 C         1.332626        -0.162117         0.018854
 C         2.563044        -0.041657         0.925032
 C         3.253630        -1.051147         0.023394
 C         2.382092        -0.521252        -1.064153
 O         1.936738        -1.253199        -2.148449
 C         2.781062         1.021758        -1.244457
 C         2.120881         1.198083         0.093354
 O         1.871831         2.341111         0.889544
 H        -0.395531        -0.369035         1.066857
 H        -0.713921        -0.009234        -0.675007
 H        -0.281670        -1.679514         0.072420
 H         2.464976         0.226073         1.961046
 H         4.330246        -0.949883        -0.093745
 H         3.104117        -2.153620         0.319104
 H         2.769520        -1.410165        -2.639244
 H         3.885991         1.270509        -1.205091
 H         2.114370         1.349833        -2.013581
 H         2.337133         3.143534         0.537739
