19
Iteration:  2389charge 0 multiplicity 1
 C         0.162793        -0.780565         0.632585
 C         1.403309        -0.161575         0.082732
 C         2.802322         0.068772         0.784917
 C         3.374965        -0.956491        -0.222212
 C         2.331754        -0.494237        -1.117918
 O         2.024968        -1.268244        -2.269233
 C         2.609465         1.054465        -1.256071
 C         2.102608         1.200533         0.106802
 O         1.577831         2.357872         0.735831
 H        -0.123973        -0.303464         1.535874
 H        -0.597855        -0.536102        -0.160907
 H         0.354990        -1.880368         0.799560
 H         2.927542        -0.086298         1.893337
 H         4.418726        -0.905635        -0.588844
 H         3.213202        -1.981588         0.152385
 H         1.025882        -1.248205        -2.349071
 H         3.677222         1.326282        -1.510309
 H         1.813902         1.283404        -1.932676
 H         1.857015         2.308180         1.665283
