19
Iteration:  4049
 C         0.040140        -0.689973         0.390628
 C         1.407294        -0.044761         0.052564
 C         2.707503        -0.123344         0.864530
 C         3.319299        -1.106697        -0.195336
 C         2.298059        -0.481745        -1.197268
 O         1.759994        -1.174399        -2.272672
 C         2.717974         1.025165        -1.177864
 C         2.172839         1.180150         0.208844
 O         1.859969         2.325326         0.891738
 H        -0.088081        -1.647779        -0.211369
 H        -0.305156        -0.878963         1.444619
 H        -0.741427        -0.062722        -0.074615
 H         2.830505        -0.013157         1.969490
 H         4.344197        -1.042535        -0.412102
 H         3.008111        -2.132639         0.140233
 H         2.322381        -0.986976        -3.048197
 H         3.740424         1.302634        -1.282441
 H         2.008481         1.672755        -1.730100
 H         2.653668         2.843415         1.060375
