19
Iteration:  2001charge 0 multiplicity 1
 C         0.102172        -0.741379         0.678273
 C         1.363190        -0.180987         0.168312
 C         2.747529         0.010394         0.809356
 C         3.528797        -0.884644        -0.161882
 C         2.303144        -0.488966        -1.182605
 O         2.111612        -1.367909        -2.356978
 C         2.384455         1.043713        -1.291764
 C         2.128549         1.199423         0.138503
 O         1.648992         2.323977         0.774823
 H        -0.108700        -0.288110         1.705298
 H        -0.780767        -0.393715         0.130038
 H         0.040776        -1.805493         0.537898
 H         2.873095         0.078299         1.904650
 H         4.551920        -0.653493        -0.565303
 H         3.438636        -1.961104         0.089580
 H         1.305637        -0.933441        -2.810182
 H         3.390708         1.436585        -1.549563
 H         1.681501         1.481917        -2.022001
 H         2.402272         2.817223         1.102175
