19
Iteration:  4564charge 0 multiplicity 1
 C        -0.090168        -0.359821         0.547067
 C         1.313061        -0.091886         0.100308
 C         2.699882        -0.106218         0.874238
 C         3.385247        -0.981138        -0.110748
 C         2.340879        -0.554683        -1.159605
 O         2.048363        -1.308922        -2.289427
 C         2.645215         1.010350        -1.355630
 C         2.139361         1.074062         0.059934
 O         1.871215         2.317705         0.847862
 H        -0.938052         0.188760         0.010510
 H        -0.314080        -1.401053         0.228407
 H        -0.278410        -0.266210         1.651620
 H         3.000157        -0.194881         1.835746
 H         4.422845        -0.764709        -0.322837
 H         3.207078        -2.052127         0.045119
 H         2.067699        -2.219003        -1.915697
 H         3.691077         1.285864        -1.459437
 H         1.928261         1.424778        -1.950749
 H         0.966924         2.545922         0.582818
