19
Iteration:   593
 C        -0.173447        -0.281607         0.295284
 C         1.351213        -0.083627        -0.073074
 C         2.640111        -0.166581         0.810437
 C         3.485416        -0.992213        -0.066208
 C         2.493281        -0.565483        -1.203564
 O         2.054493        -1.430944        -2.254759
 C         2.786673         1.077862        -1.291061
 C         2.140614         1.174368         0.226849
 O         1.586464         2.201495         1.006719
 H        -0.305530         0.532113         1.052996
 H        -0.601151         0.065526        -0.563812
 H        -0.556366        -1.374549         0.597565
 H         2.707860        -0.202628         1.912349
 H         4.531417        -0.664312        -0.098615
 H         3.396303        -1.984836         0.221071
 H         1.528491        -2.136807        -1.726498
 H         3.801729         1.266014        -1.519099
 H         2.184841         1.736484        -1.979461
 H         2.028305         3.041683         0.798352
