19
Iteration:  4219charge 0 multiplicity 1
 C         0.029359        -0.520717         0.333237
 C         1.391120        -0.141441         0.042677
 C         2.716879        -0.172725         0.952955
 C         3.339473        -1.078731        -0.118890
 C         2.279247        -0.397487        -1.152877
 O         1.772741        -1.216423        -2.223302
 C         2.746155         1.033257        -1.216436
 C         2.166754         1.108780         0.143031
 O         1.837815         2.284807         0.868055
 H        -0.689350         0.299435         0.255290
 H        -0.421576        -1.361778        -0.193792
 H        -0.062504        -0.868724         1.385374
 H         2.740821        -0.237730         2.030879
 H         4.422282        -0.990587        -0.410826
 H         3.171095        -2.141311         0.060837
 H         2.327546        -0.825976        -2.940437
 H         3.789684         1.225323        -1.653735
 H         2.148871         1.447564        -2.028769
 H         2.425488         2.958419         0.495306
