19
Iteration:  1029charge 0 multiplicity 1
 C        -0.001728        -0.351857         0.303664
 C         1.406053        -0.230221         0.042094
 C         2.720259        -0.062587         0.911293
 C         3.381597        -0.984552        -0.048561
 C         2.377628        -0.501447        -1.141204
 O         2.017838        -1.203017        -2.257610
 C         2.652858         0.997821        -1.288202
 C         2.191276         1.095671         0.174785
 O         1.596209         2.179541         0.854283
 H        -0.208492         0.178996         1.271642
 H        -0.690388         0.099995        -0.549315
 H        -0.283441        -1.399761         0.388815
 H         2.831341        -0.185725         1.970705
 H         4.465167        -0.835774        -0.131391
 H         3.341460        -2.125039         0.168573
 H         1.931389        -2.135202        -2.050611
 H         3.703652         1.280705        -1.600847
 H         1.925551         1.552364        -1.940378
 H         2.078179         2.960566         0.591526
