19
Iteration:  4802
 C        -0.093359        -0.364188         0.436745
 C         1.381004        -0.087116         0.091244
 C         2.661285        -0.049397         0.957815
 C         3.497165        -0.924084        -0.168617
 C         2.360195        -0.547503        -1.148619
 O         1.957343        -1.422400        -2.203471
 C         2.676970         1.005602        -1.371361
 C         2.144264         1.149117         0.060103
 O         1.820930         2.185610         0.907670
 H        -0.647928        -0.728269        -0.386017
 H        -0.214709        -1.039257         1.275177
 H        -0.307073         0.571626         0.963089
 H         2.660053        -0.117418         2.074629
 H         4.644918        -1.034782        -0.404369
 H         3.308224        -1.960564         0.002977
 H         1.269065        -0.932904        -2.712485
 H         3.763619         1.133084        -1.670042
 H         2.021405         1.462424        -2.130544
 H         1.186623         2.806400         0.550114
