19
Iteration:  2842
 C         0.176628        -0.835759         0.480674
 C         1.515584        -0.180093         0.108396
 C         2.890998         0.017644         0.785075
 C         3.550589        -1.012856        -0.146188
 C         2.361659        -0.481330        -1.097746
 O         1.697157        -1.033416        -2.248783
 C         2.579843         1.162134        -1.328537
 C         2.065770         1.147366         0.107447
 O         1.600186         2.199456         0.897600
 H         0.272612        -1.517498         1.424406
 H        -0.697029        -0.169401         0.625338
 H        -0.244487        -1.517115        -0.351462
 H         2.964697         0.083071         1.841419
 H         4.474120        -0.763203        -0.675365
 H         3.735712        -2.054546         0.149937
 H         1.389536        -1.986087        -2.175691
 H         3.652752         1.579607        -1.443982
 H         1.825759         1.403913        -2.096564
 H         1.825044         3.060564         0.526215
