19
Iteration:  2129
 C         0.225185        -0.732589         0.523444
 C         1.460907        -0.172430         0.144345
 C         2.748364        -0.107823         0.895912
 C         3.511249        -0.895873        -0.245961
 C         2.292795        -0.476511        -1.134402
 O         2.002124        -1.376739        -2.221353
 C         2.384839         1.110224        -1.366978
 C         2.051879         1.189221         0.130073
 O         1.653240         2.377953         0.791203
 H        -0.131436        -0.320992         1.515403
 H        -0.503233        -0.335107        -0.228334
 H         0.146593        -1.832219         0.682573
 H         3.079733         0.025019         1.935607
 H         4.487939        -0.448111        -0.541194
 H         3.615285        -1.910549         0.078147
 H         1.346927        -0.912208        -2.703909
 H         3.374266         1.537109        -1.662212
 H         1.552890         1.173474        -2.094486
 H         2.097891         2.602018         1.651519
