19
Iteration:  2226charge 0 multiplicity 1
 C         0.188764        -0.699419         0.622160
 C         1.439496        -0.214898         0.180670
 C         2.773112         0.015723         0.831779
 C         3.495585        -0.858222        -0.179945
 C         2.340955        -0.424717        -1.145848
 O         1.993686        -1.263838        -2.257770
 C         2.510648         1.068900        -1.406864
 C         2.058018         1.133468         0.050102
 O         1.574774         2.214591         0.814953
 H        -0.186849        -0.397030         1.595482
 H        -0.501864        -0.234718        -0.086307
 H         0.097432        -1.796008         0.645782
 H         2.888192         0.049182         1.894234
 H         4.562342        -0.688901        -0.437144
 H         3.242340        -1.910173        -0.041855
 H         1.072108        -1.215882        -2.436894
 H         3.517643         1.402887        -1.464131
 H         1.830246         1.283255        -2.155134
 H         2.359425         2.616390         1.253187
