19
Iteration:  3996
 C        -0.094928        -0.555884         0.463085
 C         1.337554        -0.131192         0.060875
 C         2.740551        -0.223646         0.874682
 C         3.403903        -0.951663        -0.211078
 C         2.230997        -0.487012        -1.138152
 O         1.985537        -1.178245        -2.406996
 C         2.572971         1.129415        -1.274841
 C         2.098500         1.143404         0.173691
 O         1.983667         2.266835         0.963061
 H        -0.232269        -1.434833         1.057568
 H        -0.737319         0.096198         1.016257
 H        -0.553442        -0.652173        -0.508258
 H         2.789570        -0.312480         1.976767
 H         4.437501        -0.873941        -0.622593
 H         3.334914        -2.072543        -0.127401
 H         1.646825        -2.083971        -2.233746
 H         3.545641         1.577951        -1.426033
 H         1.785480         1.566819        -1.938849
 H         2.663938         2.270792         1.636386
