19
Iteration:   469charge 0 multiplicity 1
 C        -0.010618        -0.638899         0.193947
 C         1.345799        -0.063387        -0.067935
 C         2.445614        -0.010664         0.948047
 C         3.310004        -1.029177         0.096545
 C         2.355682        -0.507444        -1.152499
 O         1.948891        -1.344343        -2.227874
 C         2.821751         1.009753        -1.295903
 C         2.074133         1.202207         0.113046
 O         1.877122         2.366463         0.971623
 H        -0.330363        -0.370670         1.183723
 H        -0.777238        -0.178016        -0.591932
 H         0.069456        -1.732859        -0.058855
 H         2.328368        -0.093604         2.009516
 H         4.349616        -0.897232        -0.142500
 H         2.985995        -2.100969         0.333149
 H         2.704553        -1.792706        -2.741720
 H         3.912091         1.329863        -1.353979
 H         2.455255         1.634549        -2.084651
 H         2.626665         2.874250         0.644885
