19
Iteration:  3199
 C         0.138337        -0.768518         0.515168
 C         1.474444        -0.283406         0.141575
 C         2.795029        -0.116640         0.829104
 C         3.553009        -0.856233        -0.318401
 C         2.349522        -0.385627        -1.170315
 O         1.777786        -1.107063        -2.294270
 C         2.403868         1.101594        -1.316521
 C         2.064279         1.116407         0.227726
 O         1.747112         2.164058         1.006376
 H        -0.314334        -1.559734        -0.099986
 H         0.218930        -1.303562         1.517278
 H        -0.591321         0.089136         0.490105
 H         2.996574         0.055791         1.888935
 H         4.625692        -0.492591        -0.577968
 H         3.642628        -1.980256        -0.249993
 H         2.162560        -0.606761        -3.042098
 H         3.486338         1.306313        -1.679636
 H         1.610208         1.470390        -2.006177
 H         2.069940         2.985063         0.588542
