19
Iteration:  3041
 C         0.169686        -0.932277         0.565935
 C         1.416114        -0.214566         0.158540
 C         2.796636        -0.005409         0.776949
 C         3.467208        -0.907479        -0.323978
 C         2.341313        -0.459331        -1.188809
 O         1.893613        -1.074106        -2.293758
 C         2.465390         1.085941        -1.260634
 C         2.147884         1.177288         0.174700
 O         1.711748         2.298823         0.888617
 H        -0.654160        -0.178640         0.553063
 H        -0.162163        -1.613751        -0.256471
 H         0.215145        -1.532945         1.482983
 H         2.702403        -0.174660         1.841366
 H         4.415440        -0.622368        -0.718186
 H         3.233771        -1.890340        -0.052710
 H         1.206596        -1.687197        -2.033118
 H         3.399731         1.561406        -1.696746
 H         1.610215         1.498983        -1.871492
 H         2.356244         2.696551         1.508536
