19
Iteration:  1751charge 0 multiplicity 1
 C         0.098589        -0.819369         0.476315
 C         1.425897        -0.157749         0.076482
 C         2.757247        -0.033634         0.892490
 C         3.489796        -0.841058        -0.193835
 C         2.314712        -0.456997        -1.094974
 O         2.049359        -1.439304        -2.221099
 C         2.356984         1.097342        -1.335997
 C         2.097655         1.197276         0.160938
 O         1.769488         2.422041         0.865861
 H        -0.156407        -0.343250         1.465332
 H        -0.675814        -0.724990        -0.270426
 H         0.171630        -1.994088         0.578563
 H         2.852458         0.089237         1.957745
 H         4.515433        -0.770472        -0.583817
 H         3.314223        -1.936235         0.049988
 H         1.223560        -1.235078        -2.690337
 H         3.052331         1.728811        -1.928357
 H         1.351342         1.194818        -1.949877
 H         2.423870         3.009895         0.398275
