19
Iteration:  4578charge 0 multiplicity 1
 C        -0.115497        -0.389067         0.521359
 C         1.332895        -0.167976         0.121201
 C         2.615666        -0.094421         0.822773
 C         3.419776        -1.006576        -0.182231
 C         2.313371        -0.508633        -1.143433
 O         2.146904        -1.353013        -2.255883
 C         2.547505         1.006560        -1.314032
 C         2.148032         1.208512         0.138707
 O         1.956699         2.290185         0.806911
 H        -0.645720         0.451511         0.138094
 H        -0.467463        -1.331368         0.174106
 H        -0.236444        -0.367551         1.614141
 H         2.405059         0.056716         1.924121
 H         4.476624        -0.845205        -0.438298
 H         3.299398        -2.116313         0.215265
 H         1.667715        -2.167884        -2.008183
 H         3.511496         1.331083        -1.702141
 H         1.859470         1.488245        -2.122617
 H         1.008623         2.496845         0.923964
