19
Iteration:  1925charge 0 multiplicity 1
 C         0.155355        -0.747430         0.474537
 C         1.464902        -0.164084         0.244539
 C         2.853333        -0.034636         0.827469
 C         3.495952        -0.865946        -0.248114
 C         2.299871        -0.508045        -1.189968
 O         2.007195        -1.382078        -2.138353
 C         2.361445         1.032432        -1.383295
 C         2.103959         1.204455         0.179643
 O         1.620459         2.392640         0.818179
 H        -0.574401        -0.336522         1.323339
 H        -0.425649        -0.521422        -0.473663
 H         0.296711        -1.889900         0.450178
 H         3.010697         0.008602         1.940551
 H         4.524597        -0.563496        -0.619030
 H         3.365546        -1.943743         0.057736
 H         1.350998        -0.987447        -2.680103
 H         3.350611         1.234017        -1.862786
 H         1.475102         1.533057        -1.897337
 H         2.422302         2.866794         1.144512
