19
Iteration:  2728charge 0 multiplicity 1
 C         0.075728        -0.585974         0.754456
 C         1.381280        -0.148884         0.085947
 C         2.783422        -0.143879         0.812585
 C         3.571368        -0.891660        -0.323805
 C         2.406903        -0.476134        -1.216834
 O         1.961767        -1.292544        -2.314915
 C         2.461729         1.140281        -1.253985
 C         2.103506         1.097970         0.183627
 O         1.547946         2.265164         0.758460
 H        -0.521049        -1.315228         0.185882
 H         0.476790        -0.916401         1.780293
 H        -0.527396         0.357398         1.078672
 H         2.886591        -0.263167         1.893712
 H         4.555818        -0.523471        -0.720217
 H         3.419745        -1.990856        -0.246946
 H         2.768268        -1.820920        -2.662539
 H         3.525970         1.587328        -1.561665
 H         1.734455         1.633600        -1.939841
 H         1.764127         2.360533         1.691980
