19
Iteration:  1399charge 0 multiplicity 1
 C         0.010415        -0.514298         0.459535
 C         1.390176        -0.151544         0.012033
 C         2.633910        -0.090879         0.796738
 C         3.485663        -0.913756        -0.081499
 C         2.308152        -0.444892        -1.166309
 O         2.103965        -1.423691        -2.212774
 C         2.501362         1.072379        -1.404460
 C         2.109736         1.166044         0.080536
 O         1.790954         2.304184         0.881841
 H        -0.135544         0.014140         1.408845
 H        -0.778619        -0.324006        -0.255948
 H        -0.091252        -1.665694         0.824515
 H         2.635615         0.136802         1.856458
 H         4.566046        -0.610373        -0.254191
 H         3.458342        -1.987406         0.178778
 H         1.330965        -1.978267        -1.847226
 H         3.369447         1.673923        -1.710339
 H         1.544457         1.474261        -1.933672
 H         2.174717         2.272802         1.768299
