19
Iteration:  4447charge 0 multiplicity 1
 C        -0.122997        -0.643301         0.313871
 C         1.309920        -0.124183         0.070840
 C         2.684689        -0.044107         0.914927
 C         3.318457        -0.935622        -0.078054
 C         2.307208        -0.477856        -1.167101
 O         2.048770        -1.357267        -2.158275
 C         2.569001         0.991400        -1.396202
 C         2.149219         1.189688         0.195285
 O         2.138183         2.337160         0.855070
 H        -0.584279        -1.370531        -0.297812
 H        -0.339401        -0.958188         1.323944
 H        -0.677267         0.321958         0.327881
 H         2.762123        -0.082832         1.943777
 H         4.386278        -0.884005        -0.089998
 H         2.900572        -1.994553        -0.197575
 H         1.080155        -1.357801        -2.378104
 H         3.549749         1.373051        -1.586261
 H         1.592109         1.418221        -1.942173
 H         1.436794         2.953450         0.620978
