19
Iteration:  1370
 C         0.029650        -0.727374         0.372614
 C         1.400980        -0.148323         0.168681
 C         2.733079        -0.040943         0.922600
 C         3.432472        -0.945230        -0.070229
 C         2.316833        -0.469948        -1.092332
 O         1.940443        -1.187637        -2.260619
 C         2.576823         0.986706        -1.361933
 C         2.085874         1.127919         0.084095
 O         1.790113         2.364107         0.752370
 H        -0.524467        -0.142983         1.143995
 H        -0.710125        -0.575336        -0.469525
 H         0.105831        -1.706430         0.638339
 H         2.875652         0.117978         1.976124
 H         4.461667        -0.732578        -0.268887
 H         3.232259        -2.035523         0.265003
 H         1.730281        -2.112873        -1.923528
 H         3.565284         1.420913        -1.569265
 H         1.709611         1.298832        -1.924591
 H         2.613057         2.830440         1.086834
