19
Iteration:   564charge 0 multiplicity 1
 C        -0.054490        -0.278708         0.345932
 C         1.359451        -0.195177         0.052964
 C         2.535898        -0.173687         0.926184
 C         3.341516        -0.963171        -0.070156
 C         2.386251        -0.514759        -1.115339
 O         2.215255        -1.217070        -2.269376
 C         2.670173         1.008857        -1.257127
 C         2.122608         1.032124         0.163602
 O         1.781211         2.181285         0.834399
 H        -0.314447         0.583211         1.000253
 H        -0.616343        -0.009801        -0.624028
 H        -0.484784        -1.200999         0.642516
 H         2.746547        -0.102488         1.972945
 H         4.385021        -0.619950        -0.220824
 H         3.197314        -2.056723         0.135632
 H         1.578398        -1.955089        -2.092085
 H         3.726798         1.278876        -1.577366
 H         2.032375         1.550525        -1.968694
 H         1.140948         2.683164         0.254202
