19
Iteration:  2409charge 0 multiplicity 1
 C         0.106075        -0.777856         0.546672
 C         1.387555        -0.137510         0.123291
 C         2.764318         0.012349         0.867992
 C         3.539759        -0.889793        -0.090783
 C         2.337805        -0.486709        -1.066093
 O         1.929028        -1.201203        -2.224000
 C         2.581499         1.058802        -1.453729
 C         2.055151         1.149014        -0.002637
 O         1.661459         2.279262         0.772137
 H         0.065486        -0.859069         1.595346
 H        -0.779042        -0.374119        -0.000946
 H         0.276657        -1.870379         0.313219
 H         2.906712         0.374741         1.898593
 H         4.544014        -0.673687        -0.447656
 H         3.412725        -1.932399         0.273745
 H         0.924594        -1.287053        -2.240921
 H         3.640714         1.177918        -1.547924
 H         1.982369         1.460902        -2.277986
 H         1.967272         2.174040         1.671121
