19
Iteration:  2882charge 0 multiplicity 1
 C         0.133467        -0.772565         0.646184
 C         1.380279        -0.192947         0.155063
 C         2.871999        -0.091025         0.855608
 C         3.461853        -0.941398        -0.345941
 C         2.277399        -0.509904        -1.145522
 O         1.920344        -1.095888        -2.324290
 C         2.474015         1.164062        -1.272373
 C         2.163918         1.146703         0.173531
 O         1.596485         2.257315         0.772754
 H         0.233307        -1.058609         1.660011
 H        -0.758129        -0.143939         0.671025
 H        -0.079388        -1.514418        -0.121753
 H         3.068753        -0.291442         1.892299
 H         4.596788        -0.657854        -0.573480
 H         3.711779        -2.019763        -0.010775
 H         2.101198        -2.029407        -2.303901
 H         3.404862         1.645267        -1.604471
 H         1.580403         1.686445        -1.638912
 H         2.361116         2.745222         1.158530
