19
Iteration:  3533
 C         0.001622        -0.624466         0.642571
 C         1.400683        -0.216700         0.197258
 C         2.788880        -0.238701         0.739935
 C         3.547071        -0.907342        -0.387689
 C         2.231050        -0.456426        -1.244401
 O         2.015595        -1.137766        -2.359303
 C         2.246606         1.154397        -1.191255
 C         2.072735         1.085186         0.202496
 O         1.962806         2.201853         0.952001
 H        -0.400291        -0.363855         1.657423
 H        -0.650072        -0.098134        -0.046779
 H        -0.164865        -1.661434         0.383604
 H         3.271820        -0.141718         1.688947
 H         4.458596        -0.222116        -0.595355
 H         3.695276        -2.019245        -0.229651
 H         2.154984        -0.444393        -3.059471
 H         3.097977         1.575972        -1.670021
 H         1.451539         1.561039        -1.806812
 H         1.630626         1.803639         1.799785
