19
Iteration:  4167
 C        -0.022459        -0.287674         0.447676
 C         1.404935        -0.284336         0.095404
 C         2.613925        -0.171681         0.880435
 C         3.366033        -0.990178        -0.181317
 C         2.308117        -0.513696        -1.242931
 O         1.968601        -1.192852        -2.336285
 C         2.544289         1.023738        -1.274382
 C         2.219249         1.083986         0.147060
 O         1.829281         2.254985         0.946691
 H        -0.669385        -0.006825        -0.386361
 H        -0.283948        -1.264717         0.847518
 H        -0.234739         0.360129         1.264940
 H         2.737758        -0.280034         1.919904
 H         4.416558        -0.757127        -0.537510
 H         3.129201        -1.983587         0.070276
 H         2.679808        -1.861309        -2.489030
 H         3.598406         1.156980        -1.489896
 H         1.753744         1.451649        -1.910886
 H         2.550545         2.440469         1.588002
