19
Iteration:   335
 C        -0.162582        -0.326160         0.426963
 C         1.222912        -0.156793         0.009638
 C         2.440796        -0.173077         0.907824
 C         3.277337        -1.125103         0.014185
 C         2.468612        -0.575756        -1.219514
 O         2.416398        -1.347542        -2.305494
 C         2.673047         1.083972        -1.180753
 C         2.066517         1.129822         0.125472
 O         1.894655         2.366985         0.820334
 H        -0.433454         0.258451         1.315758
 H        -0.988866        -0.101415        -0.390545
 H        -0.466177        -1.325590         0.664687
 H         2.436516        -0.230917         2.003482
 H         4.365713        -0.996004         0.076517
 H         3.044915        -2.200966         0.225482
 H         1.552145        -1.232118        -2.838105
 H         3.770365         1.353724        -1.314694
 H         2.023806         1.560499        -1.933383
 H         1.559073         2.886378         0.060037
