19
Iteration:  2250
 C         0.004333        -0.665495         0.553719
 C         1.352131        -0.222882         0.079556
 C         2.814685         0.008852         0.836068
 C         3.713152        -0.812625        -0.285694
 C         2.391559        -0.577627        -1.123697
 O         1.918315        -1.291223        -2.263307
 C         2.576991         1.045618        -1.342453
 C         2.105401         1.095415         0.147513
 O         1.523659         2.316483         0.859531
 H        -0.385718         0.054640         1.422356
 H        -0.849300        -0.569805        -0.125161
 H         0.106158        -1.582305         1.127500
 H         3.178231         0.048752         1.859151
 H         4.638724        -0.404823        -0.794111
 H         3.896295        -1.795560         0.122037
 H         0.923148        -1.246029        -2.397440
 H         3.578787         1.375479        -1.501613
 H         1.749331         1.293914        -1.969606
 H         2.245758         2.534435         1.441567
