19
Iteration:  2128charge 0 multiplicity 1
 C         0.231202        -0.724000         0.526009
 C         1.466638        -0.173821         0.152232
 C         2.745066        -0.107039         0.891472
 C         3.505590        -0.899565        -0.252023
 C         2.292800        -0.469489        -1.134443
 O         2.003229        -1.387044        -2.223409
 C         2.384020         1.117773        -1.358672
 C         2.056260         1.184877         0.128456
 O         1.648947         2.377796         0.793038
 H        -0.128715        -0.315096         1.488971
 H        -0.486936        -0.352370        -0.260988
 H         0.146620        -1.843716         0.672412
 H         3.082484         0.037148         1.945723
 H         4.491305        -0.482960        -0.565771
 H         3.614416        -1.915447         0.116512
 H         1.322119        -0.941940        -2.723071
 H         3.362493         1.545340        -1.668320
 H         1.574015         1.232504        -2.095608
 H         2.063907         2.608061         1.648132
