19
Iteration:   350charge 0 multiplicity 1
 C        -0.147264        -0.292195         0.374323
 C         1.298297        -0.153783        -0.074680
 C         2.490745        -0.122580         0.902116
 C         3.204450        -1.077010        -0.023884
 C         2.313888        -0.525110        -1.114250
 O         2.477848        -1.443642        -2.297580
 C         2.699169         1.022997        -1.288087
 C         2.143644         1.142261         0.167077
 O         1.840329         2.332642         0.927881
 H        -0.082835         0.504769         1.081116
 H        -0.848973         0.041474        -0.347756
 H        -0.374752        -1.320372         0.852137
 H         2.411638        -0.111885         1.984507
 H         4.260410        -1.103419        -0.295343
 H         2.755357        -2.122112         0.198901
 H         1.709493        -1.293117        -2.856019
 H         3.686327         1.507080        -1.533604
 H         2.049640         1.489294        -2.057298
 H         0.990540         2.810351         0.692400
