19
Iteration:   776charge 0 multiplicity 1
 C        -0.072987        -0.324480         0.306371
 C         1.419925        -0.253887         0.127539
 C         2.684907        -0.180280         0.918709
 C         3.484833        -0.963886        -0.125495
 C         2.333930        -0.573711        -1.050911
 O         2.092345        -1.130333        -2.319375
 C         2.546982         0.914132        -1.165034
 C         2.133062         1.075303         0.195631
 O         1.693405         2.346387         0.664608
 H        -0.370672         0.397407         1.033167
 H        -0.834808        -0.092948        -0.569636
 H        -0.469747        -1.207523         0.711727
 H         2.653973        -0.627974         1.882911
 H         4.506809        -0.623117        -0.218486
 H         3.489301        -2.091478         0.112890
 H         2.198145        -2.104410        -2.282288
 H         3.599923         1.299189        -1.195517
 H         1.846561         1.361933        -1.949832
 H         2.100359         2.490922         1.570928
