19
Iteration:  4002
 C        -0.087340        -0.586604         0.421863
 C         1.337610        -0.134627         0.096744
 C         2.658329        -0.166973         0.818162
 C         3.389260        -0.966770        -0.206196
 C         2.286713        -0.498135        -1.166326
 O         1.942033        -1.142060        -2.357139
 C         2.582286         1.139781        -1.272989
 C         2.151197         1.123052         0.211908
 O         1.985353         2.254824         0.941072
 H        -0.027017        -1.598232         0.960702
 H        -0.592474         0.149209         1.141547
 H        -0.819888        -0.722277        -0.434857
 H         2.751353        -0.323723         1.914868
 H         4.406499        -0.736151        -0.619736
 H         3.214493        -2.034872        -0.113062
 H         1.897950        -2.070594        -2.071324
 H         3.637055         1.472298        -1.491263
 H         1.855456         1.484941        -2.001577
 H         2.681497         2.240728         1.639853
