19
Iteration:  3323charge 0 multiplicity 1
 C         0.076616        -0.713217         0.600023
 C         1.573996        -0.265327         0.228350
 C         3.002986        -0.201335         0.786075
 C         3.462454        -0.976859        -0.395258
 C         2.310954        -0.376940        -1.217497
 O         1.788720        -0.963656        -2.370672
 C         2.459323         1.146851        -1.256408
 C         2.188333         1.046874         0.307554
 O         1.584552         2.239835         0.855919
 H        -0.129407        -1.229036         1.606744
 H        -0.632689         0.217593         0.752085
 H        -0.380825        -1.356021        -0.232644
 H         3.558844        -0.348344         1.766739
 H         4.361397        -0.722889        -0.893194
 H         3.225679        -2.040055        -0.080440
 H         2.433762        -1.695450        -2.533003
 H         3.501109         1.661262        -1.551401
 H         1.690038         1.659422        -1.851353
 H         1.156889         2.096068         1.724570
