19
Iteration:  2690charge 0 multiplicity 1
 C         0.166153        -0.687212         0.612923
 C         1.477942        -0.159431         0.091107
 C         2.856279        -0.006147         0.865418
 C         3.556380        -0.868686        -0.228433
 C         2.338183        -0.512929        -1.145003
 O         1.789287        -1.202760        -2.227515
 C         2.548064         1.020183        -1.319360
 C         2.131407         1.153851         0.147329
 O         1.505965         2.212291         0.753815
 H        -0.560540        -0.788183        -0.226734
 H         0.272458        -1.714098         0.886376
 H        -0.444987        -0.037549         1.164848
 H         3.000438         0.114936         1.977315
 H         4.609456        -0.622755        -0.481179
 H         3.459718        -1.961784        -0.034403
 H         2.355279        -1.180490        -3.029580
 H         3.516563         1.405996        -1.497955
 H         1.751881         1.502529        -1.875645
 H         2.065995         2.425026         1.517283
