19
Iteration:  1186charge 0 multiplicity 1
 C        -0.043444        -0.458174         0.306824
 C         1.373568        -0.128000         0.033123
 C         2.694803        -0.069384         0.864843
 C         3.430221        -0.980355        -0.087090
 C         2.364387        -0.500894        -1.190014
 O         2.015745        -1.300410        -2.178018
 C         2.700122         1.043696        -1.312232
 C         2.184095         1.122917         0.095524
 O         1.653363         2.207107         0.934355
 H        -0.231878         0.064150         1.293891
 H        -0.765743        -0.093361        -0.348674
 H        -0.100192        -1.534102         0.557212
 H         2.752719         0.085612         1.958682
 H         4.505200        -0.907135        -0.339156
 H         3.038599        -1.985132         0.000356
 H         1.215875        -1.872872        -1.915387
 H         3.764092         1.306980        -1.442539
 H         2.199732         1.596683        -2.047911
 H         2.130284         3.040574         0.762163
