19
Iteration:  3225
 C         0.048896        -0.874420         0.530971
 C         1.405556        -0.183359         0.184203
 C         2.784022        -0.126181         0.798264
 C         3.480976        -0.898933        -0.411537
 C         2.273975        -0.359287        -1.198021
 O         2.027994        -1.269364        -2.319422
 C         2.293156         1.243411        -1.246463
 C         2.141160         1.124860         0.302945
 O         1.856050         2.265907         0.972211
 H        -0.058752        -1.865291         0.015954
 H        -0.114629        -1.190797         1.540629
 H        -0.780115        -0.260335         0.128055
 H         2.954584        -0.194577         1.887442
 H         4.421699        -0.553871        -0.699739
 H         3.298309        -1.977024        -0.320619
 H         1.540906        -0.618665        -2.884502
 H         3.162573         1.705055        -1.823270
 H         1.338670         1.580506        -1.642058
 H         2.622661         2.886134         0.948713
