19
Iteration:  2984
 C         0.095203        -0.676321         0.543667
 C         1.474119        -0.156010         0.109951
 C         2.963313        -0.094140         0.790754
 C         3.526362        -0.892131        -0.329872
 C         2.299805        -0.475715        -1.173378
 O         1.810659        -1.076184        -2.289299
 C         2.512451         1.105766        -1.213498
 C         2.140099         1.062863         0.252976
 O         1.539918         2.172249         0.864559
 H        -0.506348         0.049446         1.119403
 H        -0.414312        -1.176736        -0.240800
 H         0.269669        -1.380554         1.391327
 H         3.143716        -0.195565         1.885804
 H         4.515820        -0.755656        -0.911459
 H         3.702174        -1.979068        -0.185643
 H         2.050780        -2.050634        -2.331960
 H         3.534591         1.453101        -1.531638
 H         1.635715         1.573239        -1.672764
 H         1.967626         3.010790         0.617828
