19
Iteration:   979charge 0 multiplicity 1
 C        -0.171045        -0.406213         0.322529
 C         1.294400        -0.192766         0.153265
 C         2.668262        -0.162232         1.019834
 C         3.461722        -0.909969        -0.152489
 C         2.312419        -0.515418        -1.066564
 O         2.169607        -1.173385        -2.289943
 C         2.540440         0.931480        -1.328962
 C         2.172663         1.118371         0.153235
 O         1.777894         2.234198         0.799846
 H        -0.539630         0.272671         1.136611
 H        -0.618238        -0.134974        -0.566012
 H        -0.542827        -1.435659         0.630776
 H         2.835834        -0.153127         2.095477
 H         4.468094        -0.607234        -0.666000
 H         3.496915        -1.955854        -0.011307
 H         2.218174        -2.128234        -2.168552
 H         3.441438         1.356073        -1.746509
 H         1.787058         1.293288        -1.995898
 H         2.605867         2.732760         1.036065
