19
Iteration:  4984charge 0 multiplicity 1
 C        -0.036480        -0.447215         0.415257
 C         1.379668        -0.206823         0.168160
 C         2.648109        -0.046913         0.890599
 C         3.408895        -0.981752        -0.096245
 C         2.297664        -0.547262        -1.134921
 O         1.949272        -1.370585        -2.197516
 C         2.651404         0.997604        -1.353976
 C         2.175756         1.103101         0.103610
 O         1.896895         2.356067         0.833324
 H        -0.659475         0.068515        -0.322674
 H        -0.279736        -1.511168         0.218293
 H        -0.184927        -0.023314         1.365187
 H         2.615041         0.021513         2.026042
 H         4.484779        -0.751337        -0.439049
 H         3.496307        -2.162580         0.130488
 H         1.637145        -0.909965        -3.002585
 H         3.707324         1.165808        -1.573393
 H         2.001521         1.685593        -2.033611
 H         1.009996         2.763187         0.668680
