19
Iteration:  1189charge 0 multiplicity 1
 C        -0.048994        -0.434372         0.320453
 C         1.368329        -0.155609         0.056352
 C         2.720489        -0.034925         0.883462
 C         3.419520        -0.981063        -0.107144
 C         2.380767        -0.526383        -1.212984
 O         2.013117        -1.300832        -2.186190
 C         2.698635         1.050525        -1.316435
 C         2.187012         1.112666         0.129749
 O         1.643437         2.209988         0.918048
 H        -0.314564        -0.007948         1.277307
 H        -0.762576        -0.098678        -0.441121
 H        -0.279945        -1.582441         0.549829
 H         2.732660         0.100469         1.950552
 H         4.537893        -0.939512        -0.381439
 H         3.136880        -2.001340         0.149212
 H         1.235018        -1.792476        -2.012658
 H         3.764815         1.347301        -1.418000
 H         2.181862         1.647155        -2.147946
 H         2.213695         2.977520         0.835340
