19
Iteration:   962charge 0 multiplicity 1
 C        -0.115237        -0.444363         0.410304
 C         1.362121        -0.194928         0.061157
 C         2.604774        -0.072142         0.828853
 C         3.400225        -0.889608        -0.044554
 C         2.356684        -0.532894        -1.178767
 O         2.102453        -1.297524        -2.344048
 C         2.608227         1.048039        -1.292151
 C         2.063968         1.115786         0.118137
 O         1.822701         2.253866         0.897719
 H        -0.384945         0.191282         1.237367
 H        -0.805985        -0.269383        -0.527167
 H        -0.162163        -1.500396         0.658732
 H         2.570812         0.122315         1.918255
 H         4.439438        -0.661379        -0.060439
 H         3.466618        -2.006387         0.272395
 H         2.140876        -2.240055        -2.060737
 H         3.691758         1.271853        -1.489012
 H         1.888482         1.597263        -1.992852
 H         2.639877         2.407248         1.451174
