19
Iteration:  2362charge 0 multiplicity 1
 C         0.098772        -0.721871         0.718196
 C         1.394347        -0.170599         0.150058
 C         2.659188        -0.204838         0.892818
 C         3.496528        -0.951216        -0.233703
 C         2.371578        -0.385231        -1.237661
 O         2.078669        -1.348577        -2.274606
 C         2.460287         1.139588        -1.297765
 C         2.100329         1.176173         0.135795
 O         1.646865         2.374561         0.675265
 H        -0.286049         0.073329         1.448799
 H        -0.500851        -0.982050        -0.148232
 H         0.378882        -1.449359         1.474405
 H         2.806018        -0.287483         1.946429
 H         4.472211        -0.452983        -0.317306
 H         3.486825        -2.067701        -0.331324
 H         1.511612        -0.887027        -2.954486
 H         3.438407         1.506311        -1.560984
 H         1.555605         1.525200        -1.843623
 H         2.212724         2.590877         1.444602
