19
Iteration:  4562
 C        -0.091124        -0.366524         0.545747
 C         1.315010        -0.091990         0.087246
 C         2.708839        -0.118001         0.897748
 C         3.372087        -0.983205        -0.104450
 C         2.340349        -0.557573        -1.176304
 O         2.035589        -1.299815        -2.289761
 C         2.655424         1.000021        -1.356708
 C         2.133939         1.084010         0.067462
 O         1.863194         2.317808         0.849734
 H        -0.937440         0.211191         0.012671
 H        -0.287420        -1.446097         0.251310
 H        -0.249077        -0.212710         1.639560
 H         3.100937        -0.136203         1.906921
 H         4.431941        -0.770836        -0.341833
 H         3.244826        -2.002516         0.062227
 H         2.116027        -2.218305        -1.924360
 H         3.711319         1.296779        -1.504197
 H         1.952967         1.441207        -2.000215
 H         0.987046         2.523755         0.517310
