19
Iteration:  2232
 C         0.140707        -0.709699         0.629731
 C         1.452223        -0.264038         0.160681
 C         2.810520         0.020520         0.780869
 C         3.509438        -0.855254        -0.201152
 C         2.348077        -0.468872        -1.122744
 O         1.986820        -1.250420        -2.258238
 C         2.533785         1.014385        -1.361719
 C         2.039672         1.212957         0.036319
 O         1.567843         2.228206         0.836998
 H        -0.194232        -0.148929         1.539783
 H        -0.579826        -0.285887        -0.115625
 H         0.006847        -1.800907         0.608599
 H         2.789590         0.031293         1.900182
 H         4.519003        -0.551021        -0.484374
 H         3.513075        -1.955077         0.049246
 H         0.982043        -1.131831        -2.273188
 H         3.596743         1.399681        -1.548657
 H         1.857909         1.362173        -2.249690
 H         2.277077         2.604458         1.356739
