19
Iteration:  1393charge 0 multiplicity 1
 C         0.029683        -0.591887         0.461322
 C         1.370384        -0.152479         0.021222
 C         2.591115        -0.045181         0.804286
 C         3.527756        -0.953742        -0.109023
 C         2.415068        -0.539156        -1.136613
 O         2.054779        -1.343075        -2.178844
 C         2.451269         1.118527        -1.424804
 C         2.119492         1.159592         0.061295
 O         1.794406         2.331709         0.874344
 H        -0.306959         0.081543         1.293923
 H        -0.757781        -0.278985        -0.276789
 H        -0.079069        -1.578625         0.714092
 H         2.537135         0.022832         1.903598
 H         4.578410        -0.742460        -0.122617
 H         3.303408        -2.020298         0.189579
 H         1.409079        -1.937841        -1.872098
 H         3.438536         1.496095        -1.776605
 H         1.572017         1.453852        -1.883858
 H         2.326602         2.311375         1.671824
