19
Iteration:  1949
 C         0.077668        -0.825277         0.547518
 C         1.381518        -0.195825         0.122829
 C         2.862009         0.084131         0.798093
 C         3.471066        -0.858385        -0.250417
 C         2.315490        -0.490259        -1.152238
 O         1.966240        -1.433193        -2.180551
 C         2.611766         1.206969        -1.252121
 C         2.053666         1.197062         0.105635
 O         1.634305         2.345366         0.752953
 H        -0.060017        -0.536699         1.629498
 H        -0.880510        -0.544338         0.045915
 H         0.322141        -1.987699         0.472185
 H         3.000523         0.029726         1.868408
 H         4.419133        -0.632584        -0.763978
 H         3.331380        -1.926102         0.181224
 H         1.008786        -1.244695        -2.436283
 H         3.605159         1.540108        -1.577713
 H         1.754613         1.441573        -1.955382
 H         2.268450         2.419278         1.452061
