19
Iteration:  3957charge 0 multiplicity 1
 C        -0.094665        -0.340905         0.512799
 C         1.398509        -0.208806         0.091126
 C         2.756599        -0.206575         0.885299
 C         3.456939        -1.045185        -0.281671
 C         2.268285        -0.444079        -1.187489
 O         2.054345        -1.179765        -2.321553
 C         2.468748         1.094663        -1.288506
 C         2.244964         1.045264         0.190168
 O         1.776947         2.134618         0.965096
 H        -0.191320        -1.048309         1.377313
 H        -0.468013         0.719851         0.581506
 H        -0.651900        -0.891366        -0.309392
 H         2.892993        -0.356036         1.909913
 H         4.444942        -0.665906        -0.497702
 H         3.333530        -2.094997        -0.085092
 H         1.399632        -0.656884        -2.821219
 H         3.410135         1.457248        -1.824055
 H         1.551514         1.506258        -1.708187
 H         2.648060         2.580924         1.134672
