19
Iteration:   619
 C        -0.072986        -0.412832         0.157181
 C         1.387710        -0.115521         0.069116
 C         2.680290        -0.102397         0.995396
 C         3.357128        -0.964393        -0.055870
 C         2.328025        -0.492559        -1.054997
 O         2.078331        -1.242543        -2.199922
 C         2.663060         1.008656        -1.317466
 C         2.203959         1.166932         0.098258
 O         1.682865         2.171881         0.828210
 H        -0.348960         0.205663         1.031482
 H        -0.416269         0.081442        -0.797126
 H        -0.346345        -1.419409         0.270548
 H         2.534473        -0.105614         2.068047
 H         4.402296        -0.716297        -0.309965
 H         3.264787        -2.091042        -0.009121
 H         1.770331        -2.154535        -1.858257
 H         3.749415         1.075179        -1.627179
 H         2.025851         1.541163        -2.014381
 H         2.276989         2.233367         1.604618
