19
Iteration:  1466charge 0 multiplicity 1
 C         0.092877        -0.415273         0.559773
 C         1.461630        -0.222810         0.176579
 C         2.694127        -0.067911         0.895370
 C         3.500270        -0.967739        -0.041440
 C         2.348300        -0.501297        -1.173020
 O         2.041775        -1.269199        -2.278786
 C         2.455352         1.018801        -1.330985
 C         2.231870         1.105216         0.115876
 O         1.567929         2.215181         0.710640
 H        -0.203324         0.080759         1.498425
 H        -0.559492         0.007505        -0.247664
 H        -0.220656        -1.581783         0.655608
 H         2.682084        -0.120800         1.965148
 H         4.539764        -0.805572        -0.341246
 H         3.370943        -2.095020         0.187111
 H         1.765668        -0.796503        -3.071347
 H         3.307088         1.388727        -1.936119
 H         1.457254         1.171254        -1.885865
 H         2.350965         2.792283         0.952333
