19
Iteration:  3456
 C         0.146399        -0.843348         0.545806
 C         1.452297        -0.286798         0.147041
 C         2.793449        -0.162463         0.774327
 C         3.506035        -0.883290        -0.357395
 C         2.276751        -0.380686        -1.257185
 O         1.778188        -0.928038        -2.328949
 C         2.578682         1.152158        -1.272936
 C         2.143320         1.070683         0.274074
 O         1.711998         2.167996         0.986582
 H        -0.467457        -0.004799         0.990046
 H        -0.564410        -1.076434        -0.249862
 H         0.260742        -1.655160         1.287054
 H         2.972084        -0.160397         1.810619
 H         4.567263        -0.759767        -0.682784
 H         3.397855        -1.992474        -0.353882
 H         0.987017        -1.433303        -2.034986
 H         3.614142         1.415002        -1.450419
 H         1.811034         1.637424        -1.868928
 H         2.468551         2.773423         0.897475
