19
Iteration:  3279charge 0 multiplicity 1
 C         0.094521        -0.835652         0.634282
 C         1.428759        -0.274129         0.049133
 C         2.771556        -0.165433         0.766953
 C         3.564505        -0.797822        -0.273611
 C         2.313439        -0.382621        -1.239189
 O         1.842916        -1.039726        -2.385069
 C         2.489455         1.151667        -1.302804
 C         2.100476         1.076414         0.157045
 O         1.795365         2.218217         0.970471
 H         0.364242        -1.751026         1.257741
 H        -0.463198         0.004111         1.195021
 H        -0.811134        -1.165042        -0.001669
 H         3.127904        -0.012333         1.828301
 H         4.559622        -0.448837        -0.301547
 H         3.400727        -1.905269        -0.139804
 H         1.091093        -1.507052        -1.972024
 H         3.521880         1.680102        -1.666936
 H         1.711126         1.664003        -1.866678
 H         1.793188         1.895437         1.896353
