19
Iteration:  2530charge 0 multiplicity 1
 C         0.028895        -0.580354         0.708911
 C         1.443342        -0.191311         0.147168
 C         2.814976        -0.107466         0.832661
 C         3.500192        -0.891915        -0.267653
 C         2.349384        -0.471879        -1.164817
 O         1.954361        -1.249032        -2.227588
 C         2.612288         1.095992        -1.304222
 C         2.148465         1.131033         0.207607
 O         1.439062         2.212217         0.644275
 H        -0.170406        -0.008389         1.567425
 H        -0.699390        -0.396232        -0.089565
 H         0.017940        -1.600433         1.127100
 H         3.062118        -0.160781         1.940710
 H         4.486088        -0.712130        -0.652190
 H         3.476597        -1.969458        -0.149450
 H         2.734318        -1.581813        -2.717506
 H         3.629298         1.321608        -1.428480
 H         1.932068         1.578383        -1.971646
 H         2.106865         2.878635         0.897138
