19
Iteration:   307charge 0 multiplicity 1
 C        -0.239858        -0.495053         0.326758
 C         1.235068        -0.169961         0.050546
 C         2.436662        -0.143379         1.017169
 C         3.316856        -1.000820         0.040533
 C         2.315795        -0.591997        -1.080620
 O         2.245984        -1.160259        -2.265239
 C         2.825550         0.918392        -1.200854
 C         2.177366         1.088280         0.130174
 O         1.864751         2.347012         0.664656
 H        -0.386037        -0.078350         1.328261
 H        -1.009592        -0.139797        -0.290130
 H        -0.427016        -1.655633         0.316104
 H         2.619834        -0.089476         2.088785
 H         4.324936        -0.581533        -0.114916
 H         3.393373        -2.099803         0.318923
 H         1.848133        -0.501709        -2.906542
 H         3.873127         1.015597        -1.497785
 H         2.380337         1.521659        -2.034534
 H         2.463845         2.921551         0.111303
