19
Iteration:  2749
 C         0.065147        -0.573524         0.741977
 C         1.408288        -0.302437         0.165829
 C         2.759440        -0.039916         0.795304
 C         3.485610        -0.802966        -0.244734
 C         2.277859        -0.528613        -1.194126
 O         2.070891        -1.222045        -2.412432
 C         2.388212         1.012470        -1.366274
 C         2.111060         1.079119         0.090470
 O         1.663364         2.310505         0.902795
 H        -0.239621        -1.422954         0.168747
 H        -0.027708        -0.713092         1.849792
 H        -0.618967         0.261200         0.532237
 H         2.979632        -0.112132         1.859105
 H         4.450450        -0.382107        -0.603623
 H         3.539030        -1.904491        -0.089582
 H         2.831189        -1.776394        -2.369039
 H         3.358331         1.351795        -1.812618
 H         1.523874         1.445308        -1.901800
 H         2.158534         2.281569         1.760992
