19
Iteration:  2750
 C         0.063337        -0.579707         0.738096
 C         1.410995        -0.309276         0.173221
 C         2.755706        -0.043819         0.789247
 C         3.490219        -0.802636        -0.237306
 C         2.274981        -0.531981        -1.188358
 O         2.075610        -1.216490        -2.411617
 C         2.373418         1.011522        -1.369092
 C         2.114222         1.086033         0.086387
 O         1.669182         2.308823         0.905592
 H        -0.250463        -1.450416         0.144342
 H        -0.019566        -0.687377         1.870553
 H        -0.637390         0.289214         0.494999
 H         2.995537        -0.065746         1.876879
 H         4.450510        -0.354567        -0.605905
 H         3.487408        -1.911357        -0.103251
 H         2.820847        -1.784145        -2.361092
 H         3.380768         1.345153        -1.839545
 H         1.529069         1.480688        -1.929594
 H         2.182546         2.272568         1.744831
