19
Iteration:  4870charge 0 multiplicity 1
 C        -0.083070        -0.550393         0.464862
 C         1.339790        -0.121294         0.115174
 C         2.605899        -0.076834         0.892514
 C         3.424421        -0.999350        -0.083964
 C         2.230293        -0.468227        -1.084659
 O         2.042737        -1.371570        -2.210443
 C         2.589465         0.987778        -1.336295
 C         2.196407         1.178344         0.121879
 O         2.017297         2.346814         0.719824
 H        -0.873386        -0.029852        -0.092539
 H        -0.354296        -1.539553         0.100553
 H        -0.378285        -0.517260         1.554194
 H         2.603908         0.089598         1.956846
 H         4.596364        -1.026318        -0.340754
 H         3.237229        -2.042982         0.184873
 H         1.632214        -0.722484        -2.832642
 H         3.651929         1.457868        -1.423166
 H         1.912267         1.475956        -2.037093
 H         1.048377         2.419025         0.817747
