19
Iteration:  3639charge 0 multiplicity 1
 C         0.095292        -0.820905         0.461715
 C         1.394102        -0.210557         0.163332
 C         2.768211        -0.215151         0.809135
 C         3.429351        -0.872618        -0.339611
 C         2.294459        -0.399349        -1.218812
 O         1.780781        -1.093972        -2.258904
 C         2.579152         1.101159        -1.233795
 C         2.142710         1.137123         0.258090
 O         1.839887         2.263430         0.905470
 H         0.095222        -1.071068         1.522801
 H        -0.787099        -0.203400         0.182297
 H         0.022960        -1.819133        -0.050449
 H         2.756373        -0.296267         1.856597
 H         4.421392        -0.764414        -0.508994
 H         3.282874        -1.921137        -0.160262
 H         1.447802        -0.478667        -2.939499
 H         3.611042         1.534586        -1.439869
 H         1.782343         1.585899        -1.813273
 H         2.650344         2.659328         1.318669
