19
Iteration:   165charge 0 multiplicity 1
 C        -0.143142        -0.309334         0.420456
 C         1.313816        -0.095002         0.004105
 C         2.584412        -0.102821         0.978045
 C         3.236854        -1.165688         0.008204
 C         2.431772        -0.578820        -1.136684
 O         2.411675        -1.263370        -2.388311
 C         2.670945         0.908704        -1.320758
 C         2.158937         1.165450         0.142324
 O         1.661996         2.375622         0.813240
 H        -0.474712         0.429492         1.113131
 H        -0.809530        -0.171333        -0.416702
 H        -0.493874        -1.295477         0.830028
 H         2.384457        -0.247156         2.075673
 H         4.303869        -1.153273         0.001933
 H         2.820200        -2.156087         0.269491
 H         1.836832        -2.058514        -2.306572
 H         3.607994         1.339389        -1.590453
 H         1.886640         1.278036        -2.003206
 H         2.389143         2.943880         1.181583
