19
Iteration:  4217
 C         0.017461        -0.523604         0.335225
 C         1.391370        -0.152770         0.045748
 C         2.715855        -0.184780         0.946964
 C         3.339729        -1.071122        -0.133146
 C         2.273133        -0.409852        -1.160972
 O         1.786272        -1.203510        -2.214440
 C         2.758164         1.033590        -1.230173
 C         2.163198         1.114671         0.169678
 O         1.838261         2.284726         0.857671
 H        -0.657525         0.363702         0.232634
 H        -0.466605        -1.395697        -0.178081
 H        -0.086313        -0.817179         1.446803
 H         2.806542        -0.222424         2.087201
 H         4.408332        -0.949847        -0.366238
 H         3.139019        -2.186456         0.051604
 H         2.341013        -0.856079        -2.935780
 H         3.796311         1.202123        -1.656405
 H         2.071660         1.471142        -2.048287
 H         2.398138         2.987211         0.514416
