19
Iteration:  4620
 C        -0.103655        -0.481767         0.385619
 C         1.277362        -0.151264         0.118296
 C         2.692792        -0.071455         0.969356
 C         3.438742        -0.981764        -0.084208
 C         2.326535        -0.530773        -1.084490
 O         2.049793        -1.272578        -2.271245
 C         2.498818         0.970956        -1.338580
 C         2.186509         1.071814         0.069905
 O         1.998158         2.371090         0.833126
 H        -0.679720         0.450766         0.004955
 H        -0.597522        -1.363163        -0.108820
 H        -0.420271        -0.811012         1.427686
 H         2.827873         0.229100         1.981448
 H         4.328188        -0.750056        -0.621824
 H         3.537343        -2.090593         0.154692
 H         1.681717        -2.107486        -1.958503
 H         3.473831         1.351674        -1.643773
 H         1.773836         1.412707        -1.955174
 H         1.177239         2.766283         0.412850
