19
Iteration:  2422
 C         0.088366        -0.841508         0.513808
 C         1.464661        -0.277328         0.134600
 C         2.663803        -0.002669         0.851260
 C         3.528284        -0.807644        -0.076945
 C         2.389799        -0.476420        -1.174814
 O         1.883843        -1.283367        -2.208595
 C         2.591686         1.070715        -1.393545
 C         2.094939         1.220986         0.056066
 O         1.702769         2.359846         0.764969
 H        -0.150706        -0.844656         1.556267
 H        -0.687147        -0.116406         0.151516
 H        -0.272014        -1.814460         0.031000
 H         2.916684        -0.057294         1.968790
 H         4.564035        -0.375888        -0.177493
 H         3.523255        -1.877218         0.139924
 H         0.959958        -1.309584        -2.030310
 H         3.527329         1.529867        -1.858806
 H         1.828306         1.295324        -2.125655
 H         2.204912         2.288724         1.620785
