19
Iteration:  4552charge 0 multiplicity 1
 C        -0.074066        -0.421166         0.509315
 C         1.347052        -0.134816         0.072091
 C         2.710539        -0.127855         0.979728
 C         3.353634        -1.016371        -0.123914
 C         2.336059        -0.490775        -1.176997
 O         1.964560        -1.274609        -2.294691
 C         2.688452         0.952002        -1.365093
 C         2.181648         1.181759         0.164849
 O         1.812116         2.276458         0.814510
 H        -0.790109         0.261323        -0.087955
 H        -0.349660        -1.517565         0.621160
 H        -0.037186        -0.028283         1.561482
 H         2.948455         0.246103         1.915725
 H         4.385312        -0.820129        -0.424443
 H         3.328657        -2.023244         0.220970
 H         2.292953        -2.200321        -2.262513
 H         3.698638         1.196228        -1.730847
 H         2.156856         1.391585        -2.098712
 H         1.079042         2.722367         0.359372
