19
Iteration:  1180
 C        -0.013558        -0.481392         0.326197
 C         1.396929        -0.078855        -0.014958
 C         2.642320        -0.128767         0.848120
 C         3.417116        -0.987654        -0.076672
 C         2.353483        -0.431996        -1.103314
 O         2.004817        -1.319397        -2.192383
 C         2.723627         1.032354        -1.310539
 C         2.155184         1.168166         0.066968
 O         1.680895         2.197924         0.944046
 H        -0.158067         0.083551         1.222440
 H        -0.841244        -0.112290        -0.377996
 H         0.059093        -1.595609         0.533751
 H         2.782626        -0.015440         1.904699
 H         4.516229        -0.853715        -0.236197
 H         3.079017        -2.049471        -0.094146
 H         1.354834        -1.886858        -1.797529
 H         3.794475         1.217560        -1.491600
 H         1.998117         1.579797        -2.042695
 H         2.001442         3.041630         0.636308
