19
Iteration:  1897charge 0 multiplicity 1
 C        -0.025302        -0.716821         0.507748
 C         1.439622        -0.217595         0.073430
 C         2.831049         0.001454         0.863885
 C         3.601100        -0.761901        -0.153999
 C         2.377713        -0.494386        -1.166717
 O         1.986716        -1.312407        -2.099666
 C         2.269636         1.067653        -1.384368
 C         2.064997         1.070643         0.106253
 O         1.759965         2.223866         0.830041
 H        -0.310832        -0.107508         1.305539
 H        -0.711132        -0.557045        -0.306731
 H         0.060244        -1.695023         0.968781
 H         2.939441         0.271221         1.887766
 H         4.556402        -0.447220        -0.540681
 H         3.739693        -1.853375        -0.007597
 H         1.786228        -0.698171        -2.830349
 H         3.216421         1.426271        -1.826868
 H         1.344524         1.386224        -1.850112
 H         2.383432         2.862755         0.479270
