19
Iteration:  1693charge 0 multiplicity 1
 C         0.071988        -0.676397         0.578047
 C         1.442100        -0.293167         0.119721
 C         2.700142        -0.063122         0.864844
 C         3.575726        -0.802555        -0.208549
 C         2.369547        -0.445026        -1.188242
 O         1.882763        -1.322120        -2.237612
 C         2.533767         1.091473        -1.337293
 C         2.132994         1.123054         0.145834
 O         1.744065         2.378746         0.786044
 H        -0.451154        -0.057421         1.416585
 H        -0.621844        -0.405122        -0.259853
 H        -0.018789        -1.774242         0.701353
 H         2.627316        -0.142274         1.969644
 H         4.624666        -0.485401        -0.539402
 H         3.497689        -1.813848         0.118610
 H         2.140636        -2.233746        -1.896351
 H         3.514786         1.530134        -1.682353
 H         1.615628         1.480014        -1.914606
 H         0.791012         2.361940         0.726649
