19
Iteration:  2025
 C         0.064193        -0.676630         0.684623
 C         1.384021        -0.242272         0.302407
 C         2.839357        -0.077864         0.845507
 C         3.392684        -0.882156        -0.316160
 C         2.338189        -0.430671        -1.169583
 O         2.189808        -1.313100        -2.178659
 C         2.409670         1.069953        -1.423027
 C         2.023711         1.109539         0.127063
 O         1.640329         2.317375         0.802092
 H        -0.474524        -0.021234         1.413162
 H        -0.560778        -0.541231        -0.246566
 H        -0.050921        -1.817736         0.719516
 H         3.267523        -0.168889         1.802911
 H         4.328779        -0.662706        -0.903391
 H         3.364676        -2.025210        -0.094398
 H         1.844367        -0.707149        -2.867793
 H         3.302333         1.617498        -1.739429
 H         1.544475         1.484514        -2.011382
 H         2.388672         2.900088         0.465921
