19
Iteration:  2278charge 0 multiplicity 1
 C         0.140910        -0.596810         0.502425
 C         1.458938        -0.313590         0.204611
 C         2.747825        -0.099272         0.876790
 C         3.485109        -0.799648        -0.313805
 C         2.306302        -0.433443        -1.183027
 O         2.045150        -1.330329        -2.134785
 C         2.399918         1.165135        -1.371005
 C         2.191569         1.096510         0.136243
 O         1.589086         2.224177         0.811685
 H        -0.341467         0.291442         0.834081
 H        -0.533814        -0.878325        -0.328124
 H         0.058858        -1.392517         1.287490
 H         3.073105        -0.215309         1.889742
 H         4.452365        -0.455298        -0.662133
 H         3.576973        -1.872651        -0.030145
 H         1.179673        -1.301357        -2.535761
 H         3.406723         1.548564        -1.807615
 H         1.500941         1.671115        -1.803656
 H         2.369273         2.639838         1.212506
