19
Iteration:  4639
 C        -0.083719        -0.500729         0.370777
 C         1.386039        -0.156097         0.169078
 C         2.688522        -0.056271         0.867863
 C         3.432961        -0.950262        -0.129873
 C         2.308227        -0.512272        -1.126892
 O         1.901127        -1.246896        -2.188281
 C         2.647078         0.990251        -1.280803
 C         2.127640         1.161150         0.108174
 O         1.916638         2.298476         0.801575
 H        -0.818920         0.249094        -0.070588
 H        -0.402193        -1.471066        -0.134206
 H        -0.324412        -0.784061         1.444888
 H         2.872989        -0.274607         1.862082
 H         4.566103        -0.891267        -0.176425
 H         3.176967        -1.879906         0.268892
 H         2.225725        -2.145784        -2.008495
 H         3.719932         1.083313        -1.677638
 H         1.960624         1.250379        -2.071241
 H         1.519691         2.909417         0.126227
