19
Iteration:   568
 C        -0.074855        -0.238436         0.337005
 C         1.355589        -0.226250         0.029279
 C         2.545661        -0.161294         0.929304
 C         3.373330        -0.964888        -0.080945
 C         2.384254        -0.514745        -1.125302
 O         2.190751        -1.266124        -2.273114
 C         2.704466         1.048854        -1.257899
 C         2.107593         1.055150         0.182306
 O         1.762163         2.158126         0.848613
 H        -0.251902         0.563300         1.046626
 H        -0.671140        -0.010513        -0.636246
 H        -0.305898        -1.296499         0.674132
 H         2.635274        -0.024401         2.022423
 H         4.414647        -0.664749        -0.244268
 H         3.202875        -2.064195         0.139153
 H         1.557494        -1.969354        -2.036902
 H         3.726939         1.465307        -1.493600
 H         2.066214         1.554539        -1.989198
 H         1.295971         2.755557         0.259198
