19
Iteration:  4718charge 0 multiplicity 1
 C        -0.059421        -0.558882         0.479148
 C         1.291479        -0.140877         0.080228
 C         2.665021        -0.017305         0.873064
 C         3.399655        -0.988049        -0.083243
 C         2.273377        -0.585496        -1.140379
 O         1.997700        -1.280755        -2.239555
 C         2.608652         0.911110        -1.289324
 C         2.155736         1.149209         0.138474
 O         2.027986         2.396787         0.791351
 H        -0.650516        -0.709368        -0.513394
 H        -0.222855        -1.439780         1.175591
 H        -0.877947         0.184472         0.849478
 H         2.535293        -0.114980         1.989475
 H         4.498865        -0.871513        -0.276134
 H         3.249047        -2.035057         0.225330
 H         2.062053        -0.740941        -3.034361
 H         3.653929         1.302373        -1.595460
 H         1.960641         1.399741        -1.996887
 H         1.040109         2.502902         0.766990
