19
Iteration:   770
 C        -0.073703        -0.323174         0.316810
 C         1.384467        -0.287467         0.125151
 C         2.721505        -0.232606         0.939094
 C         3.464725        -1.015902        -0.144605
 C         2.320565        -0.538542        -1.057092
 O         2.112307        -1.100959        -2.288126
 C         2.608094         0.962441        -1.183876
 C         2.035574         1.043195         0.199972
 O         1.672592         2.379093         0.646653
 H        -0.321646         0.465125         1.112374
 H        -0.647115        -0.114364        -0.541124
 H        -0.343736        -1.360429         0.800189
 H         2.708971        -0.533535         2.026218
 H         4.563403        -0.707247        -0.253140
 H         3.538763        -2.058463        -0.014522
 H         2.086798        -2.124358        -2.227644
 H         3.624249         1.327532        -1.196378
 H         2.023384         1.289082        -2.010525
 H         2.327570         2.649057         1.324711
