19
Iteration:  3881
 C        -0.008917        -0.655424         0.466236
 C         1.429303        -0.205662         0.108426
 C         2.744141        -0.190030         0.865868
 C         3.408149        -1.033720        -0.230384
 C         2.309905        -0.402054        -1.189528
 O         1.894706        -1.044849        -2.348137
 C         2.606817         1.095348        -1.368487
 C         2.201779         1.093215         0.188553
 O         1.809368         2.254203         0.985264
 H        -0.195978        -0.591588         1.562425
 H        -0.723334         0.141604         0.139868
 H        -0.212377        -1.572276        -0.139264
 H         2.698526        -0.316302         1.909448
 H         4.432981        -0.918200        -0.604749
 H         3.176094        -2.079430        -0.044209
 H         1.182164        -1.685987        -2.082252
 H         3.569679         1.471549        -1.652978
 H         1.784067         1.593698        -1.811481
 H         2.391676         2.764202         1.548513
