19
Iteration:   355charge 0 multiplicity 1
 C        -0.118871        -0.257774         0.379375
 C         1.288427        -0.117611        -0.065398
 C         2.515962        -0.083516         0.920970
 C         3.194150        -1.072398        -0.025230
 C         2.314245        -0.492900        -1.170244
 O         2.469237        -1.452433        -2.257413
 C         2.706897         0.969393        -1.294818
 C         2.156464         1.198666         0.137832
 O         1.820729         2.268115         0.956947
 H        -0.264437         0.569265         1.174537
 H        -0.863564        -0.126086        -0.487833
 H        -0.409969        -1.243254         0.704361
 H         2.390531        -0.201196         2.006638
 H         4.291171        -1.073944        -0.285776
 H         2.841499        -2.052271         0.077734
 H         1.765584        -1.281496        -2.936160
 H         3.670723         1.279139        -1.693539
 H         2.033682         1.393244        -2.070895
 H         0.901830         2.523642         0.847495
