19
Iteration:  2464charge 0 multiplicity 1
 C        -0.046351        -0.771022         0.407046
 C         1.412971        -0.194733         0.333798
 C         2.769798        -0.114869         0.885940
 C         3.412825        -0.807386        -0.287829
 C         2.304695        -0.410306        -1.155741
 O         2.170492        -1.419036        -2.102471
 C         2.386639         1.067520        -1.428137
 C         2.119456         1.174674         0.113050
 O         1.763551         2.384778         0.821933
 H        -0.353135        -1.062247         1.356788
 H        -0.713253         0.093873         0.222202
 H        -0.072447        -1.531139        -0.392595
 H         2.958701         0.092088         1.989556
 H         4.400680        -0.489861        -0.606270
 H         3.530222        -1.888598        -0.227407
 H         1.260056        -1.468375        -2.394569
 H         3.334715         1.479203        -1.685763
 H         1.554441         1.521255        -1.922757
 H         2.499075         3.041872         0.852165
