19
Iteration:  4053
 C         0.034586        -0.708490         0.384587
 C         1.394381        -0.075975         0.045724
 C         2.723453        -0.123036         0.855845
 C         3.329093        -1.096708        -0.165178
 C         2.272366        -0.501571        -1.181149
 O         1.773807        -1.165478        -2.257302
 C         2.725628         1.028705        -1.184410
 C         2.188604         1.159408         0.226354
 O         1.838780         2.344568         0.894694
 H        -0.149757        -1.516428        -0.256944
 H        -0.263390        -0.813382         1.388516
 H        -0.687780         0.026800        -0.002523
 H         2.884378         0.004376         1.873630
 H         4.387278        -1.071788        -0.520932
 H         2.852211        -2.084235        -0.066531
 H         2.246563        -0.838597        -3.053480
 H         3.800626         1.293099        -1.392046
 H         2.079717         1.658094        -1.795306
 H         2.680710         2.860196         0.965486
