19
Iteration:   459
 C         0.000187        -0.631984         0.081477
 C         1.355260        -0.150016         0.009713
 C         2.537079        -0.024190         0.923390
 C         3.251132        -1.055575         0.038604
 C         2.369513        -0.522018        -1.080969
 O         1.935917        -1.265657        -2.156999
 C         2.796799         1.015005        -1.259099
 C         2.106116         1.196774         0.096319
 O         1.874008         2.347231         0.908133
 H        -0.382228        -0.382393         1.059223
 H        -0.679003        -0.041822        -0.590739
 H        -0.297045        -1.723857         0.097329
 H         2.435166         0.207642         1.974288
 H         4.317643        -0.928380        -0.135539
 H         3.121475        -2.137649         0.300224
 H         2.802935        -1.469285        -2.671104
 H         3.866809         1.303715        -1.175057
 H         2.128470         1.406959        -2.015543
 H         2.387049         3.095347         0.544904
