19
Iteration:  1166
 C         0.058909        -0.530198         0.378472
 C         1.335746        -0.008204        -0.009598
 C         2.519926        -0.186550         0.914205
 C         3.356096        -1.040965        -0.092213
 C         2.427574        -0.482149        -1.173435
 O         1.989354        -1.277060        -2.203426
 C         2.736197         1.083476        -1.367609
 C         2.138627         1.189724         0.129453
 O         1.790229         2.255444         0.933681
 H        -0.427209        -0.131079         1.273749
 H        -0.618529        -0.415168        -0.424450
 H         0.035547        -1.688662         0.581445
 H         2.387022        -0.261258         2.002664
 H         4.411357        -0.590199        -0.225336
 H         3.433670        -2.053918         0.178721
 H         1.682503        -2.123596        -1.775841
 H         3.733417         1.452497        -1.712789
 H         2.032152         1.354717        -2.193584
 H         1.642324         3.075843         0.374234
