19
Iteration:  4853
 C        -0.090183        -0.479911         0.415819
 C         1.363230        -0.156760         0.173825
 C         2.734220        -0.130162         0.942454
 C         3.316707        -1.016363        -0.087399
 C         2.373862        -0.568335        -1.179821
 O         2.009002        -1.348323        -2.232270
 C         2.594269         0.972238        -1.297742
 C         2.154805         1.122040         0.180556
 O         1.931269         2.488950         0.735810
 H        -0.629483        -0.022628        -0.479232
 H        -0.176716        -1.598094         0.376726
 H        -0.306780        -0.284256         1.460466
 H         3.006866        -0.171343         1.997467
 H         4.277900        -0.822728        -0.341366
 H         3.276341        -2.136947         0.113758
 H         1.641849        -0.782138        -2.963906
 H         3.479715         1.247690        -1.767420
 H         1.724169         1.345271        -1.921322
 H         0.971108         2.633921         0.812284
