19
Iteration:  3496charge 0 multiplicity 1
 C         0.195864        -0.656029         0.581019
 C         1.459980        -0.222541         0.072883
 C         2.838696        -0.137578         0.750958
 C         3.432507        -0.937090        -0.371798
 C         2.285080        -0.386768        -1.236035
 O         1.758075        -1.123171        -2.432391
 C         2.468567         1.163475        -1.225625
 C         2.154324         1.115828         0.238316
 O         1.726967         2.200503         1.052896
 H        -0.159674         0.026236         1.318541
 H        -0.533832        -0.751978        -0.247467
 H         0.244521        -1.642790         1.088729
 H         3.006514        -0.276713         1.830589
 H         4.524718        -0.694938        -0.634758
 H         3.488595        -2.023424        -0.077122
 H         2.418434        -1.806616        -2.646438
 H         3.483060         1.525408        -1.530666
 H         1.611691         1.687152        -1.659138
 H         1.782229         2.029017         2.015883
