19
Iteration:  1431charge 0 multiplicity 1
 C        -0.124415        -0.384654         0.572144
 C         1.364337        -0.255947         0.190928
 C         2.749280        -0.114440         0.785372
 C         3.544919        -0.857713        -0.230434
 C         2.245778        -0.500481        -1.155855
 O         2.197894        -1.392807        -2.252592
 C         2.569741         0.995350        -1.321861
 C         2.129813         1.131715         0.144786
 O         1.665850         2.286852         0.767970
 H        -0.315704         0.163991         1.516171
 H        -0.738383         0.091051        -0.200472
 H        -0.489933        -1.525169         0.689144
 H         2.856670         0.002418         1.863048
 H         4.485441        -0.411955        -0.693162
 H         3.632221        -1.902948         0.017301
 H         1.273521        -1.718615        -2.348123
 H         3.568858         1.419503        -1.546155
 H         1.804059         1.601238        -1.967487
 H         2.015174         2.373086         1.706971
