19
Iteration:  2085charge 0 multiplicity 1
 C         0.041608        -0.606790         0.552753
 C         1.387570        -0.196239         0.091097
 C         2.857627         0.011631         0.783306
 C         3.606535        -0.833920        -0.267413
 C         2.317078        -0.509946        -1.119220
 O         2.012636        -1.306032        -2.139997
 C         2.514698         1.073939        -1.397203
 C         2.061482         1.106391         0.098565
 O         1.560469         2.202542         0.855322
 H        -0.430479         0.098165         1.265831
 H        -0.717261        -0.806807        -0.232691
 H         0.245256        -1.477705         1.218248
 H         3.201110         0.224015         1.844980
 H         4.468018        -0.411152        -0.815161
 H         3.659506        -1.880632        -0.135242
 H         1.112370        -1.200052        -2.372686
 H         3.564864         1.347872        -1.638026
 H         1.703900         1.545575        -1.955430
 H         2.238086         2.241976         1.581509
