19
Iteration:  1838
 C         0.105770        -0.665271         0.737397
 C         1.461167        -0.223814         0.120959
 C         2.797784        -0.046350         0.834780
 C         3.439971        -0.886502        -0.216248
 C         2.456540        -0.454572        -1.168407
 O         2.003847        -1.301147        -2.181842
 C         2.419760         1.112623        -1.373814
 C         2.181130         1.164419         0.053682
 O         1.531628         2.206980         0.734809
 H        -0.063814         0.054597         1.562975
 H        -0.707119        -0.391132         0.084084
 H        -0.190999        -1.696440         0.929874
 H         2.786345        -0.023920         1.930786
 H         4.468089        -0.752933        -0.579331
 H         3.193035        -1.941257         0.006472
 H         2.127918        -0.881657        -3.008027
 H         3.319442         1.547069        -1.805208
 H         1.565922         1.480624        -1.991761
 H         2.243916         2.668979         1.271744
