19
Iteration:  2277charge 0 multiplicity 1
 C         0.136174        -0.602016         0.503445
 C         1.473450        -0.304515         0.208833
 C         2.747303        -0.099181         0.871839
 C         3.487358        -0.795352        -0.309319
 C         2.315277        -0.437455        -1.190551
 O         2.038381        -1.331661        -2.139784
 C         2.406311         1.165960        -1.366483
 C         2.181458         1.098305         0.140406
 O         1.589895         2.221161         0.805437
 H        -0.388563         0.297182         0.871656
 H        -0.543131        -0.851872        -0.340718
 H         0.047398        -1.383875         1.306007
 H         3.063725        -0.231051         1.901702
 H         4.449339        -0.424654        -0.650294
 H         3.604222        -1.877085        -0.031973
 H         1.134406        -1.312721        -2.536761
 H         3.431724         1.505349        -1.781319
 H         1.481405         1.681575        -1.792950
 H         2.356983         2.619908         1.218797
