19
Iteration:    88
 C        -0.076314        -0.454636         0.101131
 C         1.390214        -0.193761         0.149168
 C         2.630805        -0.084976         1.044850
 C         3.291804        -1.099490         0.019236
 C         2.375206        -0.505417        -1.016083
 O         2.047566        -1.286755        -2.176194
 C         2.707592         1.000945        -1.278905
 C         2.136545         1.146713         0.165525
 O         1.779770         2.376450         0.641200
 H        -0.626877        -0.092265         0.903967
 H        -0.468355         0.137324        -0.678071
 H        -0.308485        -1.523999        -0.044745
 H         2.429883        -0.149734         2.123408
 H         4.343229        -1.108583        -0.204919
 H         2.948487        -2.083101         0.379525
 H         2.713355        -1.014766        -2.887402
 H         3.683384         1.357774        -1.579223
 H         1.938082         1.290250        -1.983281
 H         2.298372         2.610356         1.426222
