19
Iteration:  4678charge 0 multiplicity 1
 C         0.022942        -0.603139         0.418387
 C         1.366092        -0.104315        -0.004514
 C         2.642401        -0.084333         0.819348
 C         3.373413        -1.012761        -0.080529
 C         2.368419        -0.474751        -1.095717
 O         1.785237        -1.283678        -2.136302
 C         2.741867         1.004078        -1.307524
 C         2.214763         1.179617         0.133067
 O         1.857387         2.350091         0.814990
 H        -0.738692        -0.221058        -0.264896
 H         0.067727        -1.675534         0.394092
 H        -0.220022        -0.099062         1.321566
 H         2.588946        -0.274355         1.943378
 H         4.404566        -1.045322        -0.356992
 H         2.948577        -1.980004         0.369277
 H         2.589514        -1.663778        -2.567456
 H         3.751002         1.283268        -1.469788
 H         1.960230         1.430492        -2.014484
 H         1.265665         2.905902         0.312409
