19
Iteration:  3330
 C         0.038370        -0.709611         0.640214
 C         1.537867        -0.305194         0.289898
 C         3.006496        -0.178474         0.831364
 C         3.458720        -0.982279        -0.417976
 C         2.327233        -0.371553        -1.230371
 O         1.798247        -0.979510        -2.364039
 C         2.438551         1.195306        -1.296523
 C         2.194269         1.080622         0.242984
 O         1.634296         2.206518         0.865118
 H        -0.146453        -1.278482         1.483996
 H        -0.529372         0.157172         0.424436
 H        -0.421772        -1.306882        -0.126545
 H         3.263330        -0.293805         1.869968
 H         4.530035        -0.908989        -0.882764
 H         3.352536        -2.044738        -0.119472
 H         2.562176        -1.547000        -2.697333
 H         3.286293         1.751245        -1.453768
 H         1.659853         1.694742        -1.822728
 H         1.159067         1.980309         1.700555
