19
Iteration:  2109
 C         0.069993        -0.711080         0.537952
 C         1.464393        -0.182729         0.158560
 C         2.946229         0.063277         0.810360
 C         3.466512        -0.886944        -0.300671
 C         2.284928        -0.445483        -1.234435
 O         2.036259        -1.446908        -2.155962
 C         2.464324         1.170135        -1.304130
 C         2.153284         1.164119         0.186346
 O         1.564588         2.295606         0.771828
 H        -0.476522        -0.205914         1.414005
 H        -0.608767        -0.579823        -0.299601
 H         0.111645        -1.711257         0.939149
 H         3.067341        -0.184579         1.850125
 H         4.543972        -0.861980        -0.572618
 H         3.078898        -1.861147        -0.186272
 H         1.153779        -1.216610        -2.559380
 H         3.487197         1.513730        -1.577336
 H         1.547265         1.712003        -1.652624
 H         1.948714         2.331617         1.648887
