19
Iteration:  1307charge 0 multiplicity 1
 C         0.088211        -0.686880         0.489368
 C         1.381894        -0.106069         0.044549
 C         2.645022        -0.045986         0.940144
 C         3.357385        -0.983967        -0.044930
 C         2.371421        -0.503456        -1.135454
 O         1.869933        -1.229674        -2.254066
 C         2.691941         1.082280        -1.333563
 C         2.100021         1.150732         0.055594
 O         1.812361         2.280636         0.808397
 H        -0.119253        -0.165405         1.473043
 H        -0.729475        -0.580179        -0.272867
 H         0.186770        -1.786975         0.747375
 H         2.438463        -0.156000         1.990945
 H         4.474992        -0.869758        -0.081525
 H         3.123709        -1.994245         0.232688
 H         2.645314        -1.699681        -2.622140
 H         3.566312         1.729900        -1.588715
 H         1.924062         1.364580        -2.019777
 H         1.597053         3.036667         0.194933
