19
Iteration:  3882charge 0 multiplicity 1
 C        -0.003907        -0.644248         0.467995
 C         1.431034        -0.212606         0.121439
 C         2.743801        -0.185590         0.861503
 C         3.395673        -1.037962        -0.234667
 C         2.317341        -0.402373        -1.190931
 O         1.889793        -1.043554        -2.345598
 C         2.621082         1.103893        -1.371249
 C         2.196357         1.087813         0.190007
 O         1.800507         2.247618         0.981028
 H        -0.195356        -0.627281         1.575782
 H        -0.689444         0.159766         0.134499
 H        -0.204768        -1.545769        -0.130124
 H         2.692564        -0.316429         1.897901
 H         4.466140        -0.862561        -0.613782
 H         3.167829        -2.109621        -0.032450
 H         1.211486        -1.723651        -2.083488
 H         3.573455         1.464467        -1.685209
 H         1.790643         1.615335        -1.802145
 H         2.387993         2.750550         1.550601
