19
Iteration:  4291
 C        -0.137796        -0.550388         0.363214
 C         1.318576        -0.216984         0.039098
 C         2.640648        -0.136170         0.960443
 C         3.402102        -0.966098        -0.080714
 C         2.301321        -0.594620        -1.176896
 O         1.909218        -1.292694        -2.267378
 C         2.570936         1.045226        -1.286903
 C         2.213368         1.132970         0.225605
 O         2.061927         2.437226         0.783930
 H        -0.418096        -0.315342         1.385380
 H        -0.889379        -0.167102        -0.338968
 H        -0.254720        -1.634195         0.270159
 H         2.664062        -0.078460         2.132716
 H         4.433138        -0.791818        -0.356142
 H         3.227142        -2.083840        -0.052324
 H         2.321606        -0.863767        -3.043601
 H         3.470920         1.474780        -1.533597
 H         1.880589         1.681003        -1.904681
 H         1.981114         2.468834         1.759385
