19
Iteration:  3650
 C         0.083583        -0.820297         0.488409
 C         1.424687        -0.258572         0.104983
 C         2.657602        -0.226084         0.864461
 C         3.459097        -0.974706        -0.330605
 C         2.273139        -0.309452        -1.175409
 O         1.881039        -1.101198        -2.275120
 C         2.501008         1.173475        -1.275498
 C         2.181245         1.081017         0.202824
 O         1.859927         2.300006         0.968705
 H        -0.069431        -0.795482         1.559928
 H        -0.755690        -0.157682         0.146302
 H        -0.079685        -1.847834         0.061131
 H         2.940974        -0.446498         1.845918
 H         4.315557        -0.547017        -0.610304
 H         3.441453        -2.043847        -0.271060
 H         1.051264        -0.626252        -2.602366
 H         3.522558         1.319335        -1.741851
 H         1.788243         1.728550        -1.890032
 H         2.683141         2.823863         0.972929
