19
Iteration:  1205charge 0 multiplicity 1
 C        -0.120284        -0.418200         0.361250
 C         1.440981        -0.196582         0.169656
 C         2.782103        -0.053730         0.910835
 C         3.482730        -0.983979        -0.105386
 C         2.357781        -0.509662        -1.063016
 O         2.030945        -1.331964        -2.354476
 C         2.671450         1.032379        -1.265625
 C         2.097159         1.136825         0.122954
 O         1.635577         2.242874         0.800580
 H        -0.503678         0.223923         1.206968
 H        -0.483500         0.234275        -0.526802
 H        -0.354305        -1.438733         0.308977
 H         2.995115        -0.169475         1.992690
 H         4.452448        -0.710014        -0.433900
 H         3.298741        -2.088387         0.233554
 H         1.066486        -1.462325        -2.177045
 H         3.694787         1.342386        -1.572142
 H         1.915484         1.385610        -1.943993
 H         2.370810         2.588417         1.313717
