19
Iteration:  3443charge 0 multiplicity 1
 C         0.153371        -0.808236         0.534226
 C         1.476147        -0.217174         0.120473
 C         2.815769        -0.158623         0.874238
 C         3.540732        -0.971852        -0.338680
 C         2.316025        -0.414538        -1.150344
 O         1.749900        -0.972901        -2.472602
 C         2.439396         1.170475        -1.192881
 C         2.139650         1.104674         0.192213
 O         1.795004         2.166261         1.007213
 H        -0.485145        -0.117744         1.027793
 H        -0.223194        -1.181338        -0.408796
 H         0.230563        -1.767646         1.101227
 H         2.878360        -0.294489         1.956399
 H         4.580214        -0.575734        -0.652562
 H         3.431384        -2.041655         0.037049
 H         0.829389        -1.269314        -2.355284
 H         3.311858         1.645624        -1.524668
 H         1.674266         1.605312        -1.747607
 H         2.139350         3.021742         0.652958
