19
Iteration:  3632charge 0 multiplicity 1
 C         0.096114        -0.838628         0.480692
 C         1.398132        -0.117136         0.107545
 C         2.820033        -0.143698         0.831123
 C         3.435198        -0.912374        -0.312457
 C         2.298897        -0.430755        -1.162688
 O         1.716767        -1.109431        -2.306246
 C         2.582242         1.102106        -1.205582
 C         2.138823         1.097747         0.230213
 O         1.812807         2.272758         0.909319
 H        -0.032513        -1.243503         1.524450
 H        -0.741787        -0.247029         0.166410
 H         0.044178        -1.713393        -0.154708
 H         2.992083        -0.248195         1.953075
 H         4.610513        -0.787530        -0.670794
 H         3.291247        -2.077075        -0.201899
 H         1.762450        -0.512486        -3.122455
 H         3.586246         1.548127        -1.375516
 H         1.851300         1.709295        -1.773040
 H         2.577097         2.447253         1.493153
