19
Iteration:  1316
 C         0.120244        -0.702143         0.475311
 C         1.399023        -0.194186         0.034207
 C         2.614750        -0.094890         0.906116
 C         3.383029        -1.036376        -0.054540
 C         2.432177        -0.455470        -1.142254
 O         1.828830        -1.194668        -2.212151
 C         2.617777         1.108674        -1.262621
 C         2.145870         1.177256         0.091240
 O         1.783317         2.353850         0.737875
 H        -0.296358        -0.192846         1.448769
 H        -0.750331        -0.701243        -0.329835
 H         0.235450        -1.749872         0.700927
 H         2.508939        -0.143468         1.979247
 H         4.461003        -0.981322        -0.263317
 H         3.141818        -2.098812         0.306740
 H         2.532168        -1.832056        -2.481303
 H         3.692297         1.583677        -1.265083
 H         1.980299         1.387847        -2.063675
 H         1.798913         3.125961         0.097238
