19
Iteration:  4439
 C        -0.115385        -0.567666         0.332832
 C         1.319969        -0.111617         0.082540
 C         2.649459        -0.073293         0.950895
 C         3.333888        -0.954071        -0.127125
 C         2.289242        -0.427929        -1.136794
 O         2.055935        -1.384767        -2.200350
 C         2.546676         1.006815        -1.335510
 C         2.196858         1.121099         0.145851
 O         2.091497         2.331510         0.860484
 H        -0.538363        -1.370809        -0.357101
 H        -0.088043        -1.001950         1.384976
 H        -0.965254         0.130491         0.136179
 H         2.782368         0.189717         2.085522
 H         4.440051        -0.944577        -0.254716
 H         3.079550        -1.971786        -0.005034
 H         1.071420        -1.485468        -2.274397
 H         3.488491         1.392458        -1.692002
 H         1.794152         1.517446        -1.853659
 H         1.607696         3.044769         0.432320
