19
Iteration:  3153charge 0 multiplicity 1
 C         0.221211        -0.648701         0.615333
 C         1.520572        -0.268885         0.141739
 C         2.850703        -0.133200         0.779058
 C         3.537911        -0.912494        -0.412618
 C         2.302136        -0.402853        -1.224164
 O         1.754120        -1.106042        -2.212613
 C         2.586390         1.202388        -1.267128
 C         2.154441         1.104467         0.167563
 O         1.489252         2.092437         0.974631
 H        -0.518426        -0.725719        -0.207514
 H         0.074919        -1.673210         1.096007
 H        -0.206242         0.237570         1.102289
 H         2.994238        -0.174805         1.884270
 H         4.635914        -0.825875        -0.896634
 H         3.230665        -1.999165        -0.416582
 H         2.513740        -1.662439        -2.572650
 H         3.600728         1.684902        -1.464983
 H         1.655197         1.634994        -1.839373
 H         1.689873         3.001591         0.645421
