19
Iteration:  4493
 C        -0.061471        -0.571629         0.401551
 C         1.346284        -0.177307         0.106655
 C         2.680567        -0.090761         0.892311
 C         3.331479        -0.948743        -0.094427
 C         2.277303        -0.476600        -1.122500
 O         1.875452        -1.311177        -2.158651
 C         2.709292         0.989240        -1.355331
 C         2.250840         1.154189         0.165249
 O         1.966301         2.360839         0.781635
 H        -0.443091        -1.084006        -0.495775
 H        -0.223899        -1.392455         1.153811
 H        -0.823832         0.203204         0.601329
 H         2.647086        -0.295778         2.046881
 H         4.388806        -0.772313        -0.361034
 H         3.194130        -1.901048         0.375026
 H         2.162853        -0.925735        -3.020150
 H         3.767568         1.093572        -1.529370
 H         1.939509         1.496458        -2.011137
 H         1.178387         2.814470         0.469170
