19
Iteration:   337
 C        -0.149167        -0.319361         0.408927
 C         1.223646        -0.163312         0.000608
 C         2.444212        -0.170551         0.905740
 C         3.264935        -1.118549         0.001554
 C         2.453809        -0.586940        -1.206041
 O         2.426440        -1.359874        -2.306153
 C         2.672091         1.096829        -1.198776
 C         2.076046         1.125704         0.128171
 O         1.888998         2.376587         0.839837
 H        -0.361938         0.262371         1.281754
 H        -0.983397        -0.069661        -0.352893
 H        -0.478485        -1.318116         0.759846
 H         2.446607        -0.195304         1.997939
 H         4.339276        -1.037029         0.040450
 H         3.003105        -2.230663         0.265386
 H         1.589731        -1.265142        -2.826922
 H         3.787825         1.361876        -1.288111
 H         1.981054         1.554259        -1.909461
 H         1.483382         2.870403         0.122056
