19
Iteration:   181
 C        -0.164918        -0.346989         0.291624
 C         1.296863        -0.156596         0.175341
 C         2.493101        -0.202764         0.966939
 C         3.319760        -1.098361         0.087800
 C         2.378308        -0.529230        -1.119506
 O         2.381299        -1.252424        -2.349044
 C         2.540071         1.032121        -1.302992
 C         2.234977         1.134559         0.183310
 O         1.786897         2.352148         0.673181
 H        -0.715486         0.438769         0.904181
 H        -0.625827        -0.140183        -0.736395
 H        -0.266704        -1.304450         0.728628
 H         2.544998        -0.120913         2.043347
 H         4.448019        -1.066456        -0.057046
 H         3.055527        -2.146136         0.270281
 H         1.751468        -1.943744        -2.342828
 H         3.511226         1.331874        -1.812751
 H         1.663985         1.411066        -1.853608
 H         2.435535         2.525835         1.384801
