19
Iteration:   439charge 0 multiplicity 1
 C        -0.196706        -0.532660         0.064102
 C         1.343422        -0.063226         0.108518
 C         2.634856        -0.137675         0.991344
 C         3.418949        -1.079389         0.053256
 C         2.400510        -0.474398        -1.058795
 O         1.956681        -1.191625        -2.129176
 C         2.731217         0.986855        -1.284953
 C         2.190550         1.117062         0.210372
 O         1.814403         2.315520         0.762097
 H        -0.903020        -0.392628         0.872424
 H        -0.665263        -0.167665        -0.768102
 H        -0.116972        -1.695584        -0.002180
 H         2.806966        -0.256424         2.061430
 H         4.502899        -1.103338        -0.163437
 H         3.131716        -2.117675         0.189362
 H         2.591636        -1.198990        -2.861214
 H         3.764062         1.302835        -1.424023
 H         1.921034         1.504555        -1.904405
 H         2.013178         2.919609        -0.005302
