19
Iteration:  1668charge 0 multiplicity 1
 C         0.125725        -0.549407         0.580667
 C         1.443926        -0.128135         0.151448
 C         2.849374        -0.154111         0.911740
 C         3.467888        -0.944867        -0.219571
 C         2.325387        -0.491798        -1.179936
 O         1.953250        -1.240045        -2.235184
 C         2.491273         1.005034        -1.320196
 C         2.145286         1.121377         0.139028
 O         1.588737         2.350283         0.699616
 H        -0.287240        -0.054175         1.486599
 H        -0.781732        -0.276472        -0.063092
 H         0.245257        -1.565849         0.731165
 H         3.049759         0.028903         1.965957
 H         4.441813        -0.546784        -0.550988
 H         3.441991        -1.954665         0.178386
 H         2.720918        -1.728242        -2.513878
 H         3.529354         1.196253        -1.638860
 H         1.658481         1.390657        -1.828018
 H         0.778802         2.027063         1.148010
