19
Iteration:  2993charge 0 multiplicity 1
 C         0.145763        -0.718509         0.558489
 C         1.427039        -0.195444         0.069328
 C         2.913948        -0.082146         0.843045
 C         3.577693        -0.893255        -0.346913
 C         2.333229        -0.475555        -1.119717
 O         1.706386        -1.017340        -2.269954
 C         2.604928         1.120136        -1.257883
 C         2.173090         1.109958         0.212138
 O         1.525288         2.128621         0.871162
 H        -0.577666         0.019695         0.909125
 H        -0.335291        -1.252332        -0.226549
 H         0.418927        -1.412795         1.380222
 H         3.129675        -0.314459         1.887599
 H         4.593537        -0.442735        -0.712104
 H         3.343257        -1.863023         0.126147
 H         1.908143        -2.001649        -2.279573
 H         3.567830         1.411062        -1.663404
 H         1.863135         1.306664        -1.989218
 H         1.917017         2.965159         0.559443
