19
Iteration:  2510charge 0 multiplicity 1
 C         0.085141        -0.567336         0.648006
 C         1.453017        -0.240152         0.089804
 C         2.684704        -0.056736         0.890542
 C         3.547684        -0.862100        -0.152763
 C         2.389331        -0.505334        -1.119703
 O         1.972752        -1.319195        -2.259779
 C         2.498279         1.064210        -1.437245
 C         2.089344         1.146404         0.095482
 O         1.578309         2.222107         0.844988
 H         0.007061        -0.197049         1.680879
 H        -0.687995         0.017938         0.121188
 H        -0.061666        -1.652735         0.459288
 H         2.802268         0.031703         1.991598
 H         4.599550        -0.588590        -0.347158
 H         3.592841        -1.913007         0.075938
 H         2.395038        -1.108832        -3.070535
 H         3.466502         1.388691        -1.781515
 H         1.679886         1.377171        -2.042033
 H         2.067689         3.012116         0.495055
