19
Iteration:   171
 C        -0.172060        -0.298635         0.390644
 C         1.325044        -0.131318         0.100517
 C         2.552019        -0.143868         0.967972
 C         3.277565        -1.153290         0.049872
 C         2.399978        -0.571005        -1.153926
 O         2.412847        -1.262401        -2.379810
 C         2.609601         0.963394        -1.333404
 C         2.222160         1.147318         0.153912
 O         1.701790         2.392662         0.771863
 H        -0.570815         0.418058         1.171178
 H        -0.651931        -0.364288        -0.672903
 H        -0.492907        -1.377703         0.724072
 H         2.201627        -0.218088         1.966957
 H         4.413914        -1.173332        -0.025798
 H         2.851638        -2.187984         0.292350
 H         1.799126        -1.957251        -2.328993
 H         3.595165         1.407649        -1.757568
 H         1.784636         1.313363        -1.957542
 H         2.338456         2.880546         1.312975
