19
Iteration:  1264
 C        -0.073733        -0.469066         0.500746
 C         1.264621        -0.156957         0.101361
 C         2.685631        -0.084790         0.860203
 C         3.423005        -0.961984        -0.140968
 C         2.376520        -0.498824        -1.162247
 O         2.114001        -1.443267        -2.235014
 C         2.568001         1.099513        -1.325082
 C         2.021346         1.138000         0.137138
 O         1.887864         2.320451         0.847924
 H        -0.365423        -0.098102         1.485096
 H        -0.661463        -0.158298        -0.308886
 H        -0.341099        -1.552403         0.503313
 H         2.870992        -0.046319         1.918507
 H         4.405732        -0.657788        -0.616609
 H         3.488801        -1.988208         0.033988
 H         2.556627        -1.012972        -3.040959
 H         3.569558         1.255294        -1.703006
 H         1.877802         1.569189        -1.995724
 H         1.048719         2.429481         1.379344
