19
Iteration:  2436charge 0 multiplicity 1
 C         0.041578        -0.779794         0.411966
 C         1.396438        -0.240548         0.019742
 C         2.720798        -0.018732         0.903595
 C         3.564968        -0.782523        -0.187090
 C         2.398866        -0.483988        -1.148454
 O         1.938046        -1.369163        -2.174573
 C         2.442330         1.064247        -1.294594
 C         2.111615         1.135756         0.200626
 O         1.755095         2.413473         0.724973
 H         0.181346        -1.020352         1.520130
 H        -0.744178        -0.027811         0.274862
 H        -0.140291        -1.754915        -0.081967
 H         2.533104        -0.039806         1.973889
 H         4.597945        -0.463007        -0.533309
 H         3.690804        -1.829081         0.114072
 H         0.975550        -1.496472        -1.991409
 H         3.464762         1.545995        -1.496485
 H         1.532922         1.497918        -1.762448
 H         2.358864         2.717826         1.408803
