19
Iteration:  3448charge 0 multiplicity 1
 C         0.170685        -0.819896         0.550635
 C         1.466674        -0.246563         0.115044
 C         2.782197        -0.153356         0.858971
 C         3.554810        -0.935567        -0.364231
 C         2.300480        -0.400706        -1.177926
 O         1.747504        -0.956372        -2.420781
 C         2.483239         1.167796        -1.196410
 C         2.150172         1.097102         0.204080
 O         1.764832         2.155863         0.993412
 H        -0.528262        -0.090848         1.069589
 H        -0.272295        -1.153158        -0.426901
 H         0.117255        -1.716161         1.180518
 H         2.883433        -0.221726         1.947802
 H         4.572308        -0.763211        -0.629620
 H         3.441721        -1.962622        -0.097949
 H         0.863371        -1.338591        -2.330655
 H         3.522394         1.581195        -1.489445
 H         1.664602         1.639180        -1.851435
 H         2.295758         2.904717         0.695952
