19
Iteration:  3680charge 0 multiplicity 1
 C         0.007853        -0.622812         0.534725
 C         1.340168        -0.214681         0.166993
 C         2.728842        -0.112152         0.794260
 C         3.406857        -0.939965        -0.340185
 C         2.328275        -0.378663        -1.240040
 O         1.973601        -1.127922        -2.476743
 C         2.402338         1.111078        -1.227045
 C         2.143005         1.127139         0.248657
 O         1.927481         2.159771         1.095981
 H        -0.323154        -0.317095         1.514402
 H        -0.660811        -0.366163        -0.343583
 H        -0.031374        -1.738212         0.664715
 H         3.086350        -0.324842         1.760717
 H         4.561288        -0.706835        -0.736541
 H         3.364646        -1.990191        -0.055471
 H         1.675912        -1.983779        -2.115529
 H         3.360011         1.446906        -1.583512
 H         1.550942         1.516113        -1.791039
 H         2.370552         2.892238         0.643054
