19
Iteration:  3927
 C        -0.033886        -0.363197         0.555083
 C         1.486959        -0.201599         0.066548
 C         2.745092        -0.212270         0.856686
 C         3.458921        -0.998451        -0.345383
 C         2.322556        -0.473915        -1.234222
 O         1.823467        -1.177314        -2.306706
 C         2.685568         1.103745        -1.250834
 C         2.233290         1.085512         0.192802
 O         1.599923         2.131015         1.018747
 H        -0.212856        -0.613280         1.620267
 H        -0.547721         0.606858         0.613181
 H        -0.569659        -0.902522        -0.200205
 H         2.972188        -0.551613         1.876178
 H         4.498578        -0.754901        -0.510153
 H         3.451308        -2.104554        -0.147950
 H         2.547138        -1.101657        -2.999449
 H         3.653642         1.342061        -1.584207
 H         1.914511         1.406036        -1.955838
 H         2.381310         2.701090         0.924396
