19
Iteration:  1931
 C         0.157132        -0.791325         0.476939
 C         1.422505        -0.147260         0.151812
 C         2.913209         0.035501         0.854344
 C         3.492795        -0.883388        -0.292353
 C         2.291303        -0.501752        -1.159129
 O         2.003403        -1.409026        -2.155801
 C         2.377066         0.995946        -1.348201
 C         2.100185         1.210859         0.226336
 O         1.619335         2.419168         0.813494
 H        -0.366251        -0.337272         1.267538
 H        -0.544201        -0.546522        -0.330099
 H         0.125487        -1.843870         0.419015
 H         3.032940        -0.022331         1.917094
 H         4.502999        -0.695925        -0.645977
 H         3.317288        -1.885890         0.034520
 H         1.210311        -1.112307        -2.705691
 H         3.386086         1.325686        -1.663311
 H         1.700029         1.599348        -1.913318
 H         2.278973         2.903808         1.296101
