19
Iteration:    10
 C        -0.241193        -0.362520         0.201030
 C         1.276276        -0.066971        -0.038577
 C         2.489149        -0.139355         0.956120
 C         3.354832        -1.004199        -0.002776
 C         2.454865        -0.606273        -1.053350
 O         2.162836        -1.317291        -2.173126
 C         2.796528         1.051774        -1.240804
 C         2.166156         1.125404         0.113602
 O         1.807910         2.310220         0.753363
 H        -0.721408         0.000294         0.999164
 H        -0.656586        -0.284137        -0.739768
 H        -0.220637        -1.481484         0.315911
 H         2.345881        -0.179888         2.023957
 H         4.366949        -0.837001        -0.157269
 H         3.177545        -2.136929         0.172322
 H         1.740485        -2.145722        -1.939276
 H         3.819960         1.402087        -1.375138
 H         2.149561         1.635935        -1.837075
 H         2.570419         2.740122         1.138716
