19
Iteration:  4072charge 0 multiplicity 1
 C        -0.068695        -0.599235         0.366046
 C         1.447503        -0.163257         0.163636
 C         2.722777        -0.222855         0.939312
 C         3.338813        -1.112207        -0.222350
 C         2.319764        -0.414703        -1.141030
 O         1.865433        -1.113966        -2.221001
 C         2.712778         1.039342        -1.321789
 C         2.187021         1.155690         0.170099
 O         1.824426         2.288951         0.851922
 H        -0.347877        -1.440523        -0.317160
 H        -0.163907        -1.073012         1.370579
 H        -0.872721         0.146457         0.293293
 H         2.798874        -0.359823         1.983391
 H         4.341072        -0.952228        -0.395533
 H         3.123587        -2.086877         0.211885
 H         1.554136        -0.461637        -2.874570
 H         3.748355         1.208483        -1.443963
 H         2.035221         1.576099        -2.006869
 H         2.484380         3.021084         0.753370
