19
Iteration:  3966
 C        -0.102368        -0.385302         0.500020
 C         1.353077        -0.242386         0.121395
 C         2.754240        -0.246948         0.849736
 C         3.397953        -0.936040        -0.274602
 C         2.311377        -0.482731        -1.145971
 O         2.074697        -1.171206        -2.370559
 C         2.477402         1.033903        -1.281514
 C         2.242458         1.118861         0.200365
 O         1.850661         2.169873         0.967508
 H        -0.370355        -1.020453         1.369402
 H        -0.593652         0.623000         0.661389
 H        -0.617955        -0.814413        -0.417422
 H         2.950820        -0.330897         1.870217
 H         4.529075        -0.869275        -0.650453
 H         3.170939        -2.015623        -0.086850
 H         1.185103        -1.012745        -2.718277
 H         3.334817         1.670716        -1.705746
 H         1.558404         1.310226        -1.834200
 H         2.506669         2.732082         1.440866
