19
Iteration:  2225charge 0 multiplicity 1
 C         0.188617        -0.697362         0.622784
 C         1.446080        -0.199879         0.180242
 C         2.764830         0.013775         0.841266
 C         3.494212        -0.858813        -0.178659
 C         2.340041        -0.423271        -1.152639
 O         1.997853        -1.266022        -2.255698
 C         2.506000         1.078810        -1.410908
 C         2.058922         1.118364         0.057757
 O         1.577319         2.213460         0.810827
 H        -0.155756        -0.451994         1.586546
 H        -0.513005        -0.247120        -0.083070
 H         0.112307        -1.795081         0.649504
 H         2.920694         0.060282         1.910398
 H         4.553211        -0.718713        -0.431800
 H         3.205390        -1.914620        -0.041969
 H         1.059640        -1.227655        -2.471914
 H         3.522641         1.411958        -1.479310
 H         1.804977         1.300873        -2.155500
 H         2.358245         2.615103         1.224100
