19
Iteration:  3541
 C        -0.009647        -0.612469         0.591470
 C         1.327218        -0.255827         0.221654
 C         2.826969        -0.245075         0.789617
 C         3.524381        -0.799562        -0.385692
 C         2.231913        -0.474258        -1.183353
 O         2.031013        -1.170108        -2.435972
 C         2.286275         1.111453        -1.253968
 C         2.071375         1.034040         0.254774
 O         1.980349         2.263767         0.972579
 H        -0.086962        -0.535262         1.666103
 H        -0.740735         0.004927         0.049627
 H        -0.212700        -1.684383         0.368215
 H         3.165313        -0.247836         1.807733
 H         4.502021        -0.366701        -0.821549
 H         3.758811        -1.934171        -0.398284
 H         1.680585        -0.578921        -3.134064
 H         3.257188         1.667781        -1.497922
 H         1.444769         1.587928        -1.800552
 H         1.613510         2.055587         1.872026
