19
Iteration:  2635
 C         0.003206        -0.834088         0.383001
 C         1.367434        -0.116462         0.145564
 C         2.753620        -0.111047         0.845154
 C         3.506376        -0.797241        -0.289837
 C         2.258133        -0.481999        -1.109625
 O         2.083095        -1.442161        -2.106798
 C         2.333489         1.175243        -1.306854
 C         2.141878         1.204974         0.197406
 O         1.843472         2.345738         0.853932
 H        -0.943467        -0.297114         0.005318
 H        -0.016376        -1.805101        -0.097393
 H        -0.061946        -1.248131         1.402633
 H         2.964854        -0.179238         1.964982
 H         4.438573        -0.268557        -0.554015
 H         3.548249        -1.879856        -0.047515
 H         1.432716        -1.183380        -2.741243
 H         3.162711         1.810727        -1.651968
 H         1.521207         1.709797        -1.843086
 H         2.422313         2.977710         0.353941
