19
Iteration:  2247charge 0 multiplicity 1
 C        -0.010615        -0.675309         0.563781
 C         1.410316        -0.217739         0.073202
 C         2.801546         0.025703         0.818654
 C         3.686072        -0.836463        -0.282962
 C         2.392879        -0.606164        -1.127451
 O         1.929070        -1.263201        -2.250738
 C         2.577417         1.038038        -1.346927
 C         2.076248         1.121243         0.137444
 O         1.524504         2.313332         0.865700
 H        -0.233083        -0.096470         1.423452
 H        -0.850856        -0.551787        -0.108884
 H         0.030621        -1.608099         1.136267
 H         3.157425         0.064061         1.814468
 H         4.557938        -0.408399        -0.792548
 H         3.912674        -1.787418         0.212924
 H         0.940979        -1.225550        -2.371945
 H         3.611331         1.287963        -1.579789
 H         1.792270         1.352688        -1.965496
 H         2.268602         2.548461         1.467592
