19
Iteration:  4893
 C        -0.041385        -0.603554         0.471758
 C         1.293101        -0.069377         0.065260
 C         2.548431        -0.057673         0.829381
 C         3.297327        -0.950886        -0.089745
 C         2.351137        -0.471916        -1.147927
 O         2.036001        -1.418155        -2.158256
 C         2.675563         0.954721        -1.393459
 C         2.107759         1.223124         0.083693
 O         2.030578         2.321330         0.856352
 H        -0.948199        -0.015764         0.358797
 H        -0.439980        -1.509461         0.073593
 H        -0.001916        -0.670129         1.548819
 H         2.879324        -0.035223         1.816394
 H         4.458679        -0.726433        -0.111913
 H         3.283537        -1.997646         0.282452
 H         1.555351        -0.835348        -2.754552
 H         3.770018         1.254056        -1.586559
 H         2.017885         1.516619        -2.062346
 H         1.247023         2.840579         0.551715
