19
Iteration:  2851
 C         0.224041        -0.828994         0.511215
 C         1.525573        -0.246904         0.174161
 C         2.832372        -0.002618         0.866090
 C         3.547577        -0.994742        -0.213463
 C         2.363765        -0.550756        -1.168014
 O         1.702680        -0.982394        -2.243452
 C         2.574840         1.124446        -1.358257
 C         2.079428         1.164299         0.094128
 O         1.564476         2.236221         0.896870
 H         0.197022        -1.458243         1.451493
 H        -0.451233         0.025504         0.561683
 H        -0.010887        -1.567502        -0.331223
 H         3.089536        -0.027167         1.898061
 H         4.598293        -0.695362        -0.382726
 H         3.188266        -1.899872         0.195967
 H         1.594023        -1.977638        -2.331252
 H         3.591011         1.535025        -1.719862
 H         1.900724         1.517022        -2.140902
 H         1.903369         3.089786         0.588837
