19
Iteration:  1613
 C         0.076184        -0.632036         0.589357
 C         1.391952        -0.128305         0.054917
 C         2.651561        -0.088360         0.878927
 C         3.456108        -0.825766        -0.218796
 C         2.334401        -0.492816        -1.155822
 O         2.031670        -1.360332        -2.183182
 C         2.518415         0.992285        -1.341825
 C         2.151536         1.153353         0.113244
 O         1.724732         2.346985         0.759734
 H         0.058531        -0.168512         1.643857
 H        -0.858455        -0.263275         0.012364
 H        -0.090396        -1.639967         0.893772
 H         2.469348        -0.292277         1.918524
 H         4.454535        -0.381808        -0.379206
 H         3.705096        -1.885851         0.004762
 H         2.175729        -0.823483        -3.016208
 H         3.537997         1.201211        -1.795400
 H         1.754042         1.294237        -2.023867
 H         1.389389         2.005039         1.583084
