19
Iteration:  3271
 C         0.057934        -0.873558         0.606217
 C         1.406389        -0.202916         0.048504
 C         2.731066        -0.105604         0.792655
 C         3.562655        -0.810465        -0.302045
 C         2.304267        -0.391142        -1.260955
 O         1.909502        -1.074009        -2.371811
 C         2.416041         1.106182        -1.312577
 C         2.098817         1.103741         0.143629
 O         1.869422         2.210149         0.998877
 H         0.194016        -1.784517         1.266120
 H        -0.210909        -0.290568         1.463824
 H        -0.703965        -1.052088        -0.143615
 H         2.897881         0.208201         1.857865
 H         4.587596        -0.464204        -0.492852
 H         3.440574        -1.872083        -0.105881
 H         1.063709        -1.467482        -2.149911
 H         3.391179         1.649234        -1.321065
 H         1.559356         1.697649        -1.780121
 H         2.054461         1.860944         1.883214
