19
Iteration:  2541
 C         0.143141        -0.545049         0.699440
 C         1.425486        -0.190674         0.162514
 C         2.804411        -0.076572         0.875888
 C         3.528519        -0.975897        -0.350407
 C         2.326425        -0.477405        -1.118470
 O         1.927782        -1.238622        -2.276685
 C         2.617434         1.098296        -1.175468
 C         2.108625         1.116140         0.108732
 O         1.438925         2.237570         0.624838
 H        -0.273548         0.184743         1.276685
 H        -0.628899        -0.711525        -0.083866
 H         0.170239        -1.586391         1.062809
 H         2.976307        -0.166185         2.009505
 H         4.445202        -0.600925        -0.729397
 H         3.424129        -1.954964         0.074772
 H         2.736765        -1.867013        -2.450980
 H         3.571904         1.466264        -1.390156
 H         1.984649         1.600005        -1.849852
 H         1.919601         2.837856         1.184562
