19
Iteration:  4855charge 0 multiplicity 1
 C        -0.091231        -0.506235         0.406889
 C         1.345515        -0.153823         0.182882
 C         2.713990        -0.120398         0.916922
 C         3.319472        -1.021584        -0.085353
 C         2.379359        -0.578626        -1.164944
 O         2.010203        -1.344551        -2.232822
 C         2.586072         0.992563        -1.290996
 C         2.174666         1.125211         0.165002
 O         1.939124         2.478263         0.732527
 H        -0.668276         0.077865        -0.391464
 H        -0.176562        -1.636300         0.360789
 H        -0.298488        -0.257093         1.526765
 H         3.019419        -0.175430         2.005288
 H         4.354358        -0.730435        -0.291829
 H         3.222279        -2.092238         0.169749
 H         1.636277        -0.836194        -2.984022
 H         3.512600         1.169521        -1.794215
 H         1.747101         1.435829        -1.877057
 H         0.999706         2.630199         0.830363
