19
Iteration:  2512
 C         0.075710        -0.577969         0.655541
 C         1.448621        -0.252658         0.102073
 C         2.710034        -0.070502         0.899188
 C         3.543291        -0.860690        -0.159701
 C         2.378376        -0.473205        -1.137362
 O         1.967366        -1.311345        -2.252095
 C         2.521610         1.049078        -1.434413
 C         2.099609         1.134066         0.086285
 O         1.556526         2.233571         0.835736
 H        -0.006075        -0.084065         1.706059
 H        -0.730940        -0.011631         0.152083
 H        -0.083474        -1.660776         0.485476
 H         2.834646        -0.023715         1.945756
 H         4.634066        -0.564041        -0.299503
 H         3.545217        -1.940970         0.077737
 H         2.470720        -1.138350        -3.077692
 H         3.546661         1.397268        -1.839016
 H         1.677532         1.442199        -2.037313
 H         2.049570         3.012353         0.523933
