19
Iteration:  2469
 C        -0.050387        -0.752744         0.419702
 C         1.407611        -0.221375         0.300513
 C         2.769014        -0.054620         0.917854
 C         3.454846        -0.808123        -0.251431
 C         2.309160        -0.431275        -1.183824
 O         2.181804        -1.426249        -2.115095
 C         2.357699         1.064790        -1.443260
 C         2.134745         1.158859         0.116123
 O         1.765140         2.369087         0.875463
 H        -0.486211        -1.031190         1.469940
 H        -0.787781         0.044534         0.208912
 H        -0.205103        -1.532197        -0.356976
 H         2.965142         0.182728         1.946845
 H         4.461610        -0.546024        -0.735646
 H         3.320422        -1.919727        -0.185467
 H         1.269131        -1.144231        -2.499490
 H         3.381273         1.395907        -1.958777
 H         1.583920         1.502755        -2.159520
 H         2.421899         3.060470         0.722257
