19
Iteration:  3318
 C         0.111091        -0.694718         0.571746
 C         1.527539        -0.258447         0.186817
 C         2.990002        -0.205353         0.776344
 C         3.474513        -0.964150        -0.408442
 C         2.278153        -0.386033        -1.186577
 O         1.792724        -0.964945        -2.374396
 C         2.506257         1.128648        -1.191519
 C         2.169272         1.068075         0.318549
 O         1.565259         2.254899         0.852408
 H         0.109691        -1.158477         1.531633
 H        -0.491826         0.106277         0.914574
 H        -0.202112        -1.323221        -0.216528
 H         3.558032        -0.334434         1.653677
 H         4.517810        -0.697821        -0.847885
 H         3.257064        -2.024583        -0.238236
 H         2.206231        -1.828906        -2.516615
 H         3.434181         1.336377        -1.608481
 H         1.650687         1.531202        -1.751580
 H         1.200264         2.084147         1.734623
