19
Iteration:   773charge 0 multiplicity 1
 C        -0.074726        -0.319946         0.301384
 C         1.413904        -0.270905         0.126395
 C         2.705182        -0.202694         0.924728
 C         3.477159        -0.984913        -0.137862
 C         2.318940        -0.556345        -1.045260
 O         2.103147        -1.119078        -2.303635
 C         2.567322         0.932718        -1.172723
 C         2.087375         1.055620         0.193681
 O         1.683710         2.366127         0.655973
 H        -0.351149         0.422852         1.067112
 H        -0.741577        -0.113060        -0.488917
 H        -0.402866        -1.267305         0.760628
 H         2.674133        -0.626394         1.926643
 H         4.499695        -0.685896        -0.192736
 H         3.532671        -2.083890         0.040852
 H         2.145127        -2.051606        -2.265595
 H         3.620112         1.324927        -1.141630
 H         1.949311         1.300955        -1.969079
 H         2.199794         2.561965         1.442025
