19
Iteration:  2535
 C         0.065031        -0.575096         0.717008
 C         1.440730        -0.182378         0.147152
 C         2.806074        -0.095760         0.851844
 C         3.498709        -0.921322        -0.321303
 C         2.353062        -0.476749        -1.113401
 O         1.949774        -1.250655        -2.249681
 C         2.601906         1.107744        -1.245300
 C         2.140444         1.135147         0.193008
 O         1.436984         2.205746         0.616435
 H        -0.296771         0.213060         1.492014
 H        -0.703943        -0.511894        -0.073886
 H         0.118128        -1.633300         1.017717
 H         3.034311        -0.147753         1.873868
 H         4.516531        -0.684462        -0.758997
 H         3.475835        -2.009630        -0.059984
 H         2.701067        -1.696527        -2.651739
 H         3.712406         1.383525        -1.369300
 H         1.945714         1.630098        -1.991722
 H         2.077744         2.845541         1.011753
