19
Iteration:  1003charge 0 multiplicity 1
 C        -0.055086        -0.310483         0.292542
 C         1.365715        -0.209824         0.243967
 C         2.728051        -0.246783         0.948345
 C         3.516632        -1.108829        -0.116903
 C         2.407061        -0.499428        -1.150997
 O         2.099513        -1.195865        -2.320278
 C         2.429775         1.008151        -1.206943
 C         2.169932         1.094119         0.255752
 O         1.644722         2.336441         0.722676
 H        -0.563192         0.317830         1.014079
 H        -0.318916         0.053718        -0.729965
 H        -0.516831        -1.345325         0.381367
 H         2.928222        -0.289332         2.044482
 H         4.608300        -0.820925        -0.266065
 H         3.541274        -2.224702         0.006060
 H         2.117702        -2.107506        -2.093402
 H         3.285700         1.523436        -1.598791
 H         1.609183         1.522180        -1.741391
 H         2.312901         2.968743         0.469593
