19
Iteration:  2757charge 0 multiplicity 1
 C         0.019927        -0.614648         0.684276
 C         1.424988        -0.331620         0.229593
 C         2.743083        -0.073977         0.800702
 C         3.527055        -0.817143        -0.226718
 C         2.253603        -0.516511        -1.157009
 O         2.117808        -1.181887        -2.385482
 C         2.282738         1.024592        -1.418903
 C         2.106288         1.177777         0.103976
 O         1.727523         2.260951         0.898112
 H        -0.392213        -1.520746         0.280987
 H         0.068032        -0.590584         1.736551
 H        -0.566502         0.151340         0.301965
 H         3.037456         0.262024         1.766425
 H         4.439943        -0.365988        -0.564429
 H         3.326768        -1.879810        -0.090622
 H         2.693764        -1.961356        -2.438932
 H         3.208043         1.258982        -1.826453
 H         1.608624         1.552903        -2.071019
 H         2.411332         2.219406         1.618943
