19
Iteration:  2832charge 0 multiplicity 1
 C         0.124162        -0.846023         0.453549
 C         1.375038        -0.143482         0.111826
 C         2.894265        -0.020810         0.803975
 C         3.591901        -0.909038        -0.238415
 C         2.343378        -0.428114        -1.117036
 O         1.743146        -1.099379        -2.257920
 C         2.557014         1.076119        -1.256855
 C         2.115699         1.180430         0.105130
 O         1.640061         2.171256         0.903809
 H         0.354175        -1.531259         1.379522
 H        -0.639003        -0.144244         0.841973
 H        -0.181654        -1.446278        -0.463505
 H         2.996753         0.127889         1.851868
 H         4.579249        -0.652302        -0.633973
 H         3.574562        -1.999024         0.167155
 H         1.426012        -1.816422        -1.651964
 H         3.609209         1.505152        -1.453349
 H         1.884923         1.521845        -2.015035
 H         1.895173         2.952652         0.407460
