19
Iteration:  4573
 C        -0.100699        -0.363916         0.539087
 C         1.319459        -0.141585         0.148884
 C         2.631281        -0.080460         0.783901
 C         3.420294        -1.015424        -0.169021
 C         2.332803        -0.504811        -1.116460
 O         2.115268        -1.349934        -2.268659
 C         2.573723         1.012232        -1.323721
 C         2.163117         1.166957         0.111283
 O         1.920474         2.282856         0.810404
 H        -0.792496         0.405236         0.004279
 H        -0.438024        -1.405382         0.212763
 H        -0.288629        -0.440516         1.638540
 H         2.466734        -0.115176         1.850355
 H         4.487964        -0.822093        -0.353363
 H         3.259565        -1.993207         0.112450
 H         1.789562        -2.242338        -2.026628
 H         3.621557         1.337114        -1.574922
 H         1.907269         1.464393        -1.994275
 H         1.010199         2.582455         0.882098
