19
Iteration:  3890
 C         0.049466        -0.542920         0.486081
 C         1.426022        -0.219222         0.180131
 C         2.744082        -0.175466         0.837509
 C         3.361784        -1.048693        -0.277909
 C         2.347646        -0.420971        -1.202546
 O         1.848404        -1.042676        -2.337838
 C         2.677292         1.143013        -1.325455
 C         2.183549         1.098491         0.213310
 O         1.724787         2.184462         0.937067
 H        -0.128947        -0.933366         1.487752
 H        -0.579362         0.281543         0.081374
 H        -0.276953        -1.505840        -0.033850
 H         2.834571        -0.279422         1.919331
 H         4.322993        -0.754696        -0.444580
 H         3.233126        -2.077425        -0.081496
 H         1.532562        -1.957004        -2.102404
 H         3.654057         1.404601        -1.797149
 H         1.899336         1.671779        -1.873525
 H         2.513999         2.450046         1.432069
