19
Iteration:  4157
 C        -0.091101        -0.267913         0.499553
 C         1.363548        -0.256721         0.063459
 C         2.655677        -0.131586         0.841550
 C         3.387211        -1.007588        -0.229254
 C         2.307462        -0.449398        -1.193755
 O         2.002498        -1.249042        -2.360849
 C         2.592326         1.035198        -1.319323
 C         2.186550         1.158162         0.212302
 O         1.854243         2.167688         0.969983
 H        -0.722910        -0.271929        -0.416986
 H        -0.346421        -1.228288         0.968484
 H        -0.293904         0.596344         1.107408
 H         2.595157        -0.154635         1.880071
 H         4.511652        -0.899028        -0.304749
 H         3.268877        -2.037727         0.044564
 H         2.477306        -2.114979        -2.321811
 H         3.485902         1.415897        -1.835120
 H         1.785762         1.344855        -2.034741
 H         2.368498         2.261252         1.779195
