19
Iteration:  1776
 C         0.088735        -0.806581         0.614028
 C         1.404780        -0.178385         0.207873
 C         2.767536        -0.140351         0.819314
 C         3.485304        -0.810746        -0.226265
 C         2.321152        -0.383370        -1.114358
 O         2.000757        -1.339835        -2.137160
 C         2.449369         1.098746        -1.343184
 C         2.062093         1.142739         0.109170
 O         1.667582         2.357156         0.666588
 H        -0.201084        -0.493139         1.570142
 H        -0.649940        -0.515502        -0.186928
 H         0.143052        -1.976629         0.635711
 H         3.080010        -0.059202         1.896405
 H         4.504428        -0.545483        -0.459778
 H         3.414746        -1.965865        -0.201464
 H         1.825252        -0.968642        -2.973273
 H         3.529000         1.354068        -1.461133
 H         1.828649         1.710309        -2.034276
 H         2.533719         2.689504         1.057669
