19
Iteration:  3194
 C         0.126983        -0.774543         0.553530
 C         1.479482        -0.290199         0.131873
 C         2.809598        -0.110165         0.813051
 C         3.570375        -0.836700        -0.336724
 C         2.352083        -0.427013        -1.130942
 O         1.730735        -1.096524        -2.317408
 C         2.481791         1.090269        -1.325250
 C         2.093540         1.148473         0.210360
 O         1.696113         2.147913         1.026295
 H        -0.290153        -1.432526        -0.238622
 H         0.137720        -1.234049         1.505734
 H        -0.484798         0.101037         0.554103
 H         2.820958         0.141532         1.894653
 H         4.661254        -0.592623        -0.515104
 H         3.734927        -1.894354        -0.253071
 H         2.210115        -0.705198        -3.060835
 H         3.424628         1.343237        -1.695532
 H         1.647472         1.499375        -1.922088
 H         1.988464         2.915147         0.520741
