19
Iteration:   160
 C        -0.120257        -0.315235         0.422508
 C         1.295992        -0.072887        -0.030230
 C         2.578928        -0.090153         0.958975
 C         3.212258        -1.146942         0.004131
 C         2.443179        -0.580752        -1.125025
 O         2.399068        -1.261418        -2.385050
 C         2.709853         0.901403        -1.293406
 C         2.109043         1.170227         0.141751
 O         1.642277         2.343115         0.823111
 H        -0.358860         0.526143         1.158462
 H        -0.918600         0.002463        -0.347304
 H        -0.349685        -1.328435         0.933508
 H         2.583547        -0.183814         2.023677
 H         4.347067        -1.193563        -0.069773
 H         2.828010        -2.178938         0.269081
 H         1.914150        -2.121452        -2.275370
 H         3.776841         1.252604        -1.532014
 H         1.988224         1.263180        -2.032308
 H         2.446558         2.841331         1.020945
