19
Iteration:   889
 C        -0.086376        -0.741027         0.413420
 C         1.345744        -0.241065         0.123891
 C         2.640014        -0.126066         0.880120
 C         3.465694        -1.085036         0.028641
 C         2.349099        -0.544500        -1.062634
 O         2.009801        -0.961201        -2.339564
 C         2.660855         0.931894        -1.218012
 C         2.080708         1.169971         0.136745
 O         1.782497         2.509551         0.647968
 H        -0.528848        -0.333530         1.360283
 H        -0.602670        -0.328715        -0.454843
 H        -0.095361        -1.854376         0.410523
 H         2.666548        -0.279724         1.974954
 H         4.584475        -1.254364        -0.057458
 H         3.187210        -2.060000         0.379453
 H         1.833586        -1.873654        -2.290136
 H         3.698937         1.252824        -1.404962
 H         2.076746         1.324088        -2.061121
 H         2.687964         2.855433         0.687440
