19
Iteration:  4223charge 0 multiplicity 1
 C         0.041182        -0.516768         0.340968
 C         1.396711        -0.102917         0.046769
 C         2.706278        -0.138459         0.932701
 C         3.349486        -1.085713        -0.092759
 C         2.310070        -0.415642        -1.121002
 O         1.747190        -1.234752        -2.246888
 C         2.725623         1.033434        -1.213359
 C         2.184119         1.106546         0.106055
 O         1.838563         2.281066         0.889463
 H        -0.795275         0.186660         0.294794
 H        -0.256477        -1.317639        -0.347089
 H         0.008365        -1.000273         1.279334
 H         2.555169        -0.260736         1.991232
 H         4.402734        -1.064302        -0.478489
 H         3.173554        -2.124718         0.095051
 H         2.216437        -0.848686        -2.999416
 H         3.731347         1.269573        -1.460566
 H         2.192292         1.517320        -2.010552
 H         2.487884         2.907380         0.483588
