19
Iteration:  1679charge 0 multiplicity 1
 C         0.116799        -0.600194         0.554118
 C         1.471236        -0.127082         0.162235
 C         2.753234        -0.146086         0.934542
 C         3.499882        -0.894840        -0.187575
 C         2.312570        -0.510148        -1.121864
 O         1.904917        -1.326810        -2.309126
 C         2.503937         1.075827        -1.317931
 C         2.175662         1.213251         0.180692
 O         1.642011         2.337336         0.701039
 H        -0.049275        -0.118473         1.510886
 H        -0.659950        -0.472079        -0.260004
 H         0.093225        -1.618010         0.793173
 H         2.997772        -0.256819         1.996565
 H         4.470353        -0.447700        -0.430407
 H         3.704432        -1.954997        -0.166770
 H         2.481651        -2.073348        -2.417815
 H         3.414704         1.519761        -1.745711
 H         1.746530         1.517921        -1.911202
 H         0.704704         2.184360         1.017077
