19
Iteration:  4936charge 0 multiplicity 1
 C        -0.022088        -0.555816         0.439664
 C         1.336896        -0.102803         0.135066
 C         2.648510        -0.145060         0.886556
 C         3.361788        -0.976305        -0.108208
 C         2.311613        -0.490113        -1.095056
 O         2.032794        -1.327119        -2.170688
 C         2.582518         1.003970        -1.284648
 C         2.199720         1.120987         0.116723
 O         1.897922         2.375790         0.751085
 H        -0.811664         0.226989         0.180801
 H        -0.275815        -1.417215        -0.213085
 H        -0.231063        -0.675367         1.539342
 H         2.835903         0.076964         1.893040
 H         4.491973        -1.142916        -0.350115
 H         2.999704        -2.003942        -0.008810
 H         1.275622        -1.171659        -2.741615
 H         3.689280         1.300837        -1.500714
 H         1.920728         1.325402        -2.071483
 H         1.855059         3.013367         0.026428
