19
Iteration:  3572
 C         0.041754        -0.725900         0.574724
 C         1.357483        -0.306175         0.105444
 C         2.736840        -0.237378         0.751292
 C         3.495601        -0.878372        -0.333259
 C         2.245987        -0.397543        -1.185537
 O         1.942348        -1.111637        -2.386445
 C         2.426309         1.217377        -1.254440
 C         2.243895         1.117002         0.210364
 O         1.896370         2.283552         0.953344
 H         0.041652        -0.909039         1.645607
 H        -0.758012         0.071954         0.414021
 H        -0.284225        -1.677923         0.064236
 H         3.003081        -0.324223         1.805810
 H         4.461304        -0.537065        -0.630492
 H         3.387480        -1.973787        -0.233436
 H         1.199626        -1.721941        -2.194181
 H         3.449259         1.677293        -1.417579
 H         1.540396         1.720297        -1.690069
 H         1.633348         2.035262         1.843652
