19
Iteration:  3987charge 0 multiplicity 1
 C        -0.093150        -0.492332         0.481010
 C         1.309078        -0.165859         0.155111
 C         2.763570        -0.208319         0.915608
 C         3.403162        -1.027836        -0.284424
 C         2.255318        -0.440505        -1.207500
 O         2.051186        -1.205774        -2.434663
 C         2.499556         1.070031        -1.260269
 C         2.109689         1.115721         0.162647
 O         1.940428         2.302838         0.996570
 H        -0.224315        -1.412500         1.017152
 H        -0.598381         0.428337         0.757951
 H        -0.475521        -0.765034        -0.543144
 H         2.911427        -0.226310         1.960930
 H         4.580979        -0.626446        -0.469444
 H         3.334866        -2.108904        -0.002621
 H         1.304464        -1.839141        -2.354854
 H         3.539887         1.431524        -1.570917
 H         1.759646         1.693722        -1.810470
 H         2.696417         2.236218         1.586940
