19
Iteration:  3109charge 0 multiplicity 1
 C         0.068070        -0.680281         0.639220
 C         1.445527        -0.284457         0.214208
 C         2.760746        -0.078469         0.800239
 C         3.537499        -0.790354        -0.346767
 C         2.299317        -0.470115        -1.181557
 O         1.970975        -1.130871        -2.396064
 C         2.280940         1.096143        -1.339916
 C         2.071284         1.097349         0.139153
 O         1.797668         2.207625         0.988447
 H        -0.720414        -0.040331         0.150548
 H        -0.171109        -1.716620         0.231521
 H        -0.102486        -0.596213         1.728183
 H         2.978553        -0.095069         1.872550
 H         4.367193        -0.183459        -0.645488
 H         3.632501        -1.792110         0.022244
 H         2.601351        -1.898948        -2.506037
 H         3.237076         1.484848        -1.847813
 H         1.372157         1.324103        -2.033321
 H         2.598174         2.183946         1.563467
