19
Iteration:  1222
 C        -0.028442        -0.327395         0.351492
 C         1.415534        -0.198788         0.179510
 C         2.704207        -0.199064         0.963945
 C         3.504958        -0.970186        -0.155169
 C         2.358733        -0.566368        -1.134564
 O         2.095698        -1.234551        -2.251520
 C         2.484275         0.926220        -1.324617
 C         2.164913         1.085653         0.226646
 O         1.684838         2.332506         0.707082
 H        -0.406881         0.069061         1.263419
 H        -0.616693         0.104079        -0.447184
 H        -0.354824        -1.448306         0.339843
 H         2.886076         0.009699         2.002996
 H         4.576766        -0.574052        -0.303779
 H         3.635242        -1.998903         0.125554
 H         1.157093        -1.163614        -2.593364
 H         3.500528         1.257034        -1.545552
 H         1.635060         1.379792        -1.960635
 H         1.914101         2.364021         1.649728
