19
Iteration:  4738charge 0 multiplicity 1
 C        -0.093006        -0.499139         0.434290
 C         1.359853        -0.143466         0.144912
 C         2.632508        -0.189604         0.950269
 C         3.356146        -1.019910        -0.094517
 C         2.321028        -0.518801        -1.064414
 O         2.100571        -1.334796        -2.305039
 C         2.557075         0.983713        -1.339833
 C         2.111946         1.176170         0.157389
 O         2.008763         2.378488         0.769555
 H        -0.766433        -0.909315        -0.356464
 H        -0.122447        -1.090696         1.350393
 H        -0.694817         0.372555         0.862933
 H         2.945478         0.005463         1.982270
 H         4.440449        -0.818933        -0.488846
 H         3.273808        -2.076224         0.076791
 H         1.426591        -0.793368        -2.779586
 H         3.523196         1.491160        -1.799201
 H         1.777328         1.376860        -1.996339
 H         1.177636         2.839240         0.573499
