19
Iteration:  1621
 C         0.092763        -0.555086         0.641957
 C         1.368133        -0.169648         0.041008
 C         2.638983        -0.065531         0.833332
 C         3.561695        -0.841890        -0.147704
 C         2.346386        -0.494127        -1.165999
 O         1.994977        -1.368121        -2.245006
 C         2.537775         0.986701        -1.345702
 C         2.097544         1.187099         0.128541
 O         1.708782         2.283973         0.765493
 H        -0.082360        -0.133523         1.565586
 H        -0.771209        -0.202029         0.102709
 H         0.074806        -1.679268         0.739018
 H         2.774731        -0.076946         1.922971
 H         4.542053        -0.452948        -0.288489
 H         3.367282        -1.950351        -0.014519
 H         2.279196        -0.961358        -3.130693
 H         3.533077         1.263767        -1.613421
 H         1.692532         1.338720        -1.928745
 H         1.269142         2.198948         1.597520
