19
Iteration:  1131charge 0 multiplicity 1
 C        -0.135765        -0.705310         0.351543
 C         1.279290        -0.185926         0.175846
 C         2.652304        -0.020871         0.935910
 C         3.287831        -0.998336        -0.054647
 C         2.293339        -0.537389        -1.110463
 O         2.103163        -1.106764        -2.344514
 C         2.617706         0.982366        -1.223674
 C         2.055664         1.096645         0.148151
 O         2.069307         2.417205         0.719449
 H        -0.656547        -0.092337         1.146858
 H        -0.598025        -0.551113        -0.600591
 H        -0.153759        -1.800978         0.527765
 H         2.778761        -0.003152         2.037610
 H         4.336197        -0.845858        -0.454395
 H         3.257924        -2.020969         0.360043
 H         2.515603        -2.021330        -2.327808
 H         3.712678         1.283072        -1.246984
 H         1.969524         1.388328        -1.966491
 H         1.142040         2.707023         0.959450
