19
Iteration:  1511charge 0 multiplicity 1
 C         0.053596        -0.705819         0.493746
 C         1.415442        -0.188395         0.066163
 C         2.693701        -0.026444         0.809323
 C         3.478367        -0.917302        -0.186039
 C         2.344524        -0.487974        -1.173391
 O         1.857029        -1.333254        -2.170020
 C         2.630765         1.084223        -1.294413
 C         2.050094         1.197924         0.087556
 O         1.708513         2.336548         0.819669
 H        -0.319444        -0.056700         1.338367
 H        -0.781535        -0.491491        -0.256225
 H         0.023466        -1.904397         0.735698
 H         2.835859         0.040572         1.907639
 H         4.520082        -0.658609        -0.393940
 H         3.369560        -2.081015         0.085817
 H         2.595165        -1.953883        -2.069303
 H         3.714139         1.346548        -1.157866
 H         2.168552         1.807090        -2.050255
 H         2.470815         2.996918         0.936296
