19
Iteration:   176charge 0 multiplicity 1
 C        -0.185519        -0.309696         0.337842
 C         1.320803        -0.153440         0.169133
 C         2.512787        -0.181783         0.942990
 C         3.312187        -1.126962         0.083227
 C         2.383014        -0.554228        -1.147544
 O         2.406059        -1.254140        -2.366327
 C         2.576020         1.017333        -1.328848
 C         2.247073         1.138903         0.173814
 O         1.740067         2.380040         0.719688
 H        -0.629761         0.386205         1.017986
 H        -0.543377        -0.283156        -0.653169
 H        -0.353715        -1.398472         0.729219
 H         2.253427        -0.161447         2.044169
 H         4.369912        -1.179646        -0.065611
 H         2.958818        -2.162166         0.292818
 H         1.703299        -2.000598        -2.345472
 H         3.482057         1.332861        -1.797963
 H         1.698275         1.361780        -1.909854
 H         2.401408         2.705951         1.371092
