19
Iteration:  4835charge 0 multiplicity 1
 C        -0.019761        -0.444838         0.385798
 C         1.400904        -0.126718         0.198021
 C         2.705391        -0.139320         0.927910
 C         3.436927        -1.094392        -0.176597
 C         2.307017        -0.549858        -1.034311
 O         2.002956        -1.337776        -2.221282
 C         2.540272         0.988539        -1.308885
 C         2.181394         1.172602         0.144306
 O         1.866489         2.385157         0.739423
 H        -0.591491        -0.141685        -0.495769
 H        -0.188785        -1.474489         0.754137
 H        -0.470581         0.351616         1.094213
 H         2.753028        -0.169140         2.054596
 H         4.563355        -0.901684        -0.437569
 H         3.094384        -2.053607         0.120714
 H         1.631665        -0.821025        -2.969605
 H         3.618112         1.263042        -1.625376
 H         1.807962         1.494387        -1.944242
 H         0.917584         2.587568         0.641025
