19
Iteration:   145
 C        -0.083103        -0.264051         0.491209
 C         1.259302        -0.086962        -0.036018
 C         2.487747        -0.093912         0.852062
 C         3.248936        -1.095561         0.028608
 C         2.363169        -0.536060        -1.134290
 O         2.309894        -1.236079        -2.322364
 C         2.872551         0.977764        -1.214774
 C         2.077116         1.102852         0.027794
 O         1.645690         2.188093         0.775575
 H        -0.185677         0.330908         1.436032
 H        -0.893583        -0.178427        -0.173906
 H        -0.197417        -1.245745         0.751087
 H         2.517454         0.142180         1.944265
 H         4.355258        -1.049743        -0.139849
 H         2.920544        -2.032002         0.345433
 H         2.321168        -2.143124        -2.097474
 H         3.943867         1.076351        -1.109581
 H         2.536071         1.522511        -2.141193
 H         2.339940         2.865832         0.857569
