19
Iteration:  2131
 C         0.203368        -0.750211         0.521700
 C         1.450079        -0.171416         0.129857
 C         2.758540        -0.106664         0.900302
 C         3.522956        -0.881172        -0.231439
 C         2.298008        -0.493294        -1.134494
 O         2.001818        -1.353932        -2.213200
 C         2.389022         1.090292        -1.383565
 C         2.043769         1.198696         0.133981
 O         1.662410         2.378113         0.787836
 H        -0.127197        -0.337462         1.548153
 H        -0.548446        -0.321214        -0.148384
 H         0.153994        -1.803554         0.686424
 H         3.058383        -0.005104         1.915043
 H         4.475139        -0.387146        -0.489793
 H         3.613199        -1.932368        -0.010205
 H         1.355625        -0.829182        -2.705010
 H         3.378684         1.515133        -1.662382
 H         1.511692         1.083357        -2.082039
 H         2.167979         2.564935         1.625570
