19
Iteration:  1474
 C         0.044361        -0.448825         0.553980
 C         1.459948        -0.182616         0.097539
 C         2.755576        -0.071611         0.941964
 C         3.453821        -0.995875        -0.084562
 C         2.350776        -0.509469        -1.125710
 O         1.998618        -1.287812        -2.279610
 C         2.467223         1.016255        -1.371633
 C         2.223975         1.151813         0.136655
 O         1.584209         2.207524         0.740688
 H        -0.161139        -0.086099         1.545359
 H        -0.591039        -0.213654        -0.254947
 H        -0.093497        -1.561381         0.685966
 H         2.915919         0.008896         2.009072
 H         4.554587        -0.728083        -0.108199
 H         3.382680        -2.011913         0.176080
 H         2.153646        -0.824988        -3.089992
 H         3.384261         1.281175        -1.916095
 H         1.611319         1.427931        -1.951646
 H         2.102732         3.038639         0.859417
