19
Iteration:   744
 C        -0.156796        -0.486132         0.443250
 C         1.324800        -0.104385         0.155184
 C         2.635517        -0.171451         0.931095
 C         3.386232        -1.047342        -0.059837
 C         2.424203        -0.487498        -1.166686
 O         2.107242        -1.144550        -2.357071
 C         2.743081         1.033940        -1.256360
 C         2.228157         1.117868         0.152987
 O         1.657181         2.228781         0.738008
 H        -0.532869         0.123618         1.264002
 H        -0.834897        -0.263368        -0.525352
 H        -0.193231        -1.532942         0.757540
 H         2.716937        -0.169741         2.015905
 H         4.500320        -1.000043         0.021930
 H         3.135009        -2.149935         0.070397
 H         1.720042        -2.034635        -2.103989
 H         3.775017         1.409294        -1.361102
 H         2.064860         1.511763        -2.042442
 H         2.057263         3.072303         0.517749
