19
Iteration:   762charge 0 multiplicity 1
 C        -0.091630        -0.370975         0.388971
 C         1.337596        -0.282322         0.131904
 C         2.697752        -0.288076         0.982322
 C         3.462400        -1.059229        -0.141043
 C         2.388146        -0.502547        -1.098797
 O         2.117790        -1.095629        -2.285503
 C         2.682371         1.017208        -1.201819
 C         2.000572         1.061561         0.193821
 O         1.650857         2.371390         0.647299
 H        -0.345823         0.429938         1.093685
 H        -0.491379        -0.171217        -0.564524
 H        -0.415040        -1.361912         0.720974
 H         2.825622        -0.157618         2.059913
 H         4.419872        -0.741032        -0.498995
 H         3.397474        -2.164110        -0.001386
 H         1.945178        -2.064917        -2.123506
 H         3.750912         1.297900        -1.430720
 H         2.072693         1.440847        -1.988235
 H         2.468687         2.747339         0.987239
