19
Iteration:  4710
 C        -0.078994        -0.584662         0.457371
 C         1.355814        -0.117265         0.104375
 C         2.612972        -0.121712         0.846160
 C         3.357619        -0.944213        -0.041017
 C         2.293805        -0.526380        -1.065794
 O         1.930415        -1.321057        -2.260681
 C         2.699300         0.974947        -1.344153
 C         2.149382         1.188669         0.123617
 O         1.999242         2.351764         0.776655
 H        -0.574012        -0.807278        -0.504653
 H        -0.161834        -1.518747         1.075365
 H        -0.556732         0.165461         1.123639
 H         2.940024         0.035297         1.919190
 H         4.337310        -0.870892        -0.348095
 H         3.132711        -1.997386         0.372986
 H         2.306787        -0.804297        -2.999339
 H         3.646395         1.360968        -1.493581
 H         1.991896         1.452830        -2.070315
 H         1.050229         2.628579         0.814857
