19
Iteration:  1674
 C         0.120404        -0.577040         0.548051
 C         1.475197        -0.097146         0.153066
 C         2.805015        -0.165347         0.942767
 C         3.471683        -0.919943        -0.202133
 C         2.306869        -0.508244        -1.142818
 O         1.925721        -1.298246        -2.286517
 C         2.490029         1.046914        -1.302751
 C         2.163377         1.191873         0.172463
 O         1.616086         2.337363         0.694538
 H        -0.120849        -0.011171         1.490792
 H        -0.727175        -0.425706        -0.089808
 H         0.191065        -1.714540         0.756158
 H         3.063448        -0.136685         2.002333
 H         4.430227        -0.398220        -0.406982
 H         3.677460        -2.028020        -0.018421
 H         2.578819        -2.025705        -2.559430
 H         3.458350         1.377803        -1.730721
 H         1.681138         1.543667        -1.943891
 H         0.761827         2.117944         1.053963
