19
Iteration:  4170
 C         0.002204        -0.309969         0.436866
 C         1.372587        -0.254846         0.086931
 C         2.639902        -0.194673         0.891024
 C         3.359891        -0.982712        -0.173845
 C         2.317781        -0.521499        -1.181299
 O         1.955374        -1.189833        -2.353881
 C         2.541875         1.007521        -1.280593
 C         2.218992         1.059480         0.156935
 O         1.816251         2.277259         0.928742
 H        -0.669187         0.072787        -0.390274
 H        -0.373366        -1.306945         0.793180
 H        -0.198841         0.338882         1.311962
 H         2.820255        -0.288655         1.929958
 H         4.374892        -0.762988        -0.515654
 H         3.182421        -2.079286         0.017738
 H         2.698103        -1.780006        -2.542598
 H         3.577502         1.276878        -1.494066
 H         1.819546         1.639811        -1.909700
 H         2.635285         2.421182         1.477101
