19
Iteration:   438charge 0 multiplicity 1
 C        -0.193683        -0.527078         0.065262
 C         1.339360        -0.061507         0.117547
 C         2.640945        -0.145184         1.000385
 C         3.420999        -1.077256         0.052447
 C         2.404825        -0.475346        -1.066673
 O         1.955766        -1.193531        -2.134043
 C         2.731289         0.986437        -1.293550
 C         2.195588         1.114050         0.218065
 O         1.809743         2.319257         0.756800
 H        -0.911866        -0.404170         0.850407
 H        -0.684552        -0.137558        -0.805335
 H        -0.143958        -1.692231         0.028294
 H         2.775701        -0.255774         2.071823
 H         4.486967        -1.090676        -0.164958
 H         3.171693        -2.159846         0.182969
 H         2.576614        -1.169705        -2.836503
 H         3.774214         1.315389        -1.406016
 H         1.904296         1.500157        -1.849633
 H         1.988716         2.889249        -0.029998
