19
Iteration:  2498charge 0 multiplicity 1
 C         0.122518        -0.558254         0.535682
 C         1.395578        -0.150863         0.082942
 C         2.722271         0.015863         0.814199
 C         3.548337        -0.861575        -0.099464
 C         2.391126        -0.594146        -1.169755
 O         2.011371        -1.377025        -2.224591
 C         2.385665         1.036199        -1.319604
 C         2.054605         1.142380         0.063664
 O         1.691213         2.212821         0.885042
 H         0.089385        -0.597089         1.584155
 H        -0.730530         0.031279         0.126449
 H        -0.185958        -1.611951         0.317317
 H         2.659976         0.148657         1.958247
 H         4.434581        -0.416336        -0.518581
 H         3.562394        -1.875784         0.223745
 H         2.242151        -0.701892        -2.938582
 H         3.213350         1.603935        -1.663522
 H         1.620720         1.201961        -2.023960
 H         2.068021         3.046457         0.591677
