19
Iteration:   422charge 0 multiplicity 1
 C        -0.100530        -0.439426         0.084998
 C         1.379150        -0.188508         0.150492
 C         2.600963        -0.231486         1.076055
 C         3.400088        -1.030351        -0.012502
 C         2.384503        -0.522291        -1.054078
 O         1.950820        -1.258781        -2.223904
 C         2.711923         1.007668        -1.160172
 C         2.231249         1.074854         0.247224
 O         1.788057         2.380503         0.696835
 H        -0.554506         0.192655         0.887343
 H        -0.443558        -0.004094        -0.961623
 H        -0.314595        -1.468257         0.015906
 H         2.576894        -0.201490         2.188782
 H         4.400039        -0.577703        -0.110982
 H         3.395252        -2.126451         0.156588
 H         2.432941        -0.928880        -3.032578
 H         3.652356         1.365952        -1.622834
 H         2.003419         1.444750        -1.869004
 H         1.401766         2.873738        -0.074727
