19
Iteration:  3296
 C         0.167467        -0.763618         0.631862
 C         1.506704        -0.232767         0.129306
 C         2.789115        -0.156992         0.847338
 C         3.557954        -0.925580        -0.410907
 C         2.321871        -0.416167        -1.219917
 O         1.795355        -0.983903        -2.372690
 C         2.519796         1.160539        -1.266683
 C         2.135212         1.093251         0.226273
 O         1.668138         2.208406         0.893679
 H         0.107802        -1.400684         1.484564
 H        -0.420038         0.015169         1.095537
 H        -0.251632        -1.190316        -0.242899
 H         2.713318        -0.410104         1.877953
 H         4.454197        -0.422190        -0.917809
 H         3.616394        -1.992532        -0.189122
 H         1.360021        -1.837428        -2.127789
 H         3.480730         1.536754        -1.385658
 H         1.731250         1.622292        -1.899910
 H         1.472726         1.966696         1.822999
