19
Iteration:  4011charge 0 multiplicity 1
 C        -0.052932        -0.629984         0.413653
 C         1.292458        -0.163019         0.082327
 C         2.591317        -0.147867         0.826941
 C         3.351405        -1.011370        -0.250043
 C         2.345148        -0.393076        -1.204200
 O         1.891797        -1.112129        -2.281935
 C         2.596118         1.059757        -1.262898
 C         2.211885         1.120014         0.167151
 O         1.974299         2.267794         0.944716
 H         0.068793        -1.664584         0.802511
 H        -0.359581         0.042075         1.249327
 H        -0.818844        -0.644149        -0.421108
 H         2.733783        -0.145007         1.884376
 H         4.512560        -0.644376        -0.346110
 H         3.296014        -2.066676         0.083540
 H         2.127230        -2.040190        -2.155959
 H         3.663456         1.304321        -1.635523
 H         1.890606         1.614846        -1.890372
 H         2.657120         2.321004         1.654748
