19
Iteration:  1638
 C         0.018457        -0.549496         0.649041
 C         1.422619        -0.254979         0.140774
 C         2.830159         0.001704         0.861591
 C         3.487851        -0.975009        -0.100961
 C         2.409880        -0.555602        -1.213265
 O         1.950028        -1.319881        -2.289137
 C         2.526967         1.164012        -1.347840
 C         2.041227         1.088033         0.023172
 O         1.663195         2.309571         0.753671
 H        -0.037146        -0.092646         1.754052
 H        -0.801286        -0.075604         0.015014
 H        -0.263277        -1.574468         0.956069
 H         2.934376         0.213300         1.944267
 H         4.581298        -0.724436        -0.400313
 H         3.478417        -1.933780         0.369704
 H         2.644781        -1.105405        -3.012904
 H         3.600423         1.559512        -1.445112
 H         1.747655         1.482105        -2.122864
 H         1.112435         1.959821         1.459523
