19
Iteration:  4529
 C         0.012785        -0.400284         0.501758
 C         1.391046        -0.142132         0.052051
 C         2.731038        -0.138733         0.888395
 C         3.385296        -1.040000        -0.054050
 C         2.337117        -0.585186        -1.143390
 O         1.849022        -1.182402        -2.223068
 C         2.687643         0.962869        -1.278399
 C         2.131918         1.164542         0.103485
 O         1.790351         2.284692         0.768746
 H        -0.557184        -0.320946        -0.506555
 H         0.129569        -1.483635         0.846096
 H        -0.415803         0.264147         1.280859
 H         2.752086        -0.322447         1.986461
 H         4.468846        -0.950727        -0.271913
 H         3.269305        -2.006128         0.328926
 H         2.503404        -1.785160        -2.637796
 H         3.632300         1.453093        -1.545331
 H         2.119140         1.387980        -2.009011
 H         1.399663         2.847741         0.074418
