19
Iteration:  1442
 C        -0.063078        -0.355613         0.559713
 C         1.368436        -0.288548         0.134981
 C         2.774116        -0.100565         0.889715
 C         3.542961        -0.936487        -0.189708
 C         2.369652        -0.523541        -1.155119
 O         2.150849        -1.317516        -2.249721
 C         2.468698         1.054484        -1.282217
 C         2.094060         1.068983         0.134529
 O         1.626685         2.308834         0.712187
 H        -0.180352         0.191531         1.512709
 H        -0.734891         0.147992        -0.129653
 H        -0.484053        -1.467766         0.739065
 H         3.160891        -0.108043         1.900715
 H         4.563934        -0.487800        -0.458905
 H         3.645372        -2.010255        -0.075733
 H         1.191639        -1.383642        -2.618530
 H         3.476962         1.203348        -1.657743
 H         1.704424         1.195259        -2.107066
 H         2.218036         2.401336         1.499439
