19
Iteration:  1701charge 0 multiplicity 1
 C         0.009853        -0.716455         0.528141
 C         1.441946        -0.261873         0.069122
 C         2.771209        -0.027099         0.842591
 C         3.537579        -0.799218        -0.215102
 C         2.366271        -0.462105        -1.210370
 O         1.937407        -1.280119        -2.161830
 C         2.470726         1.052823        -1.327724
 C         2.051057         1.135038         0.139583
 O         1.801114         2.331711         0.816691
 H        -0.181177        -0.129620         1.401395
 H        -0.786522        -0.578267        -0.243755
 H        -0.087082        -1.739032         0.753379
 H         2.929326         0.120029         1.924337
 H         4.561827        -0.452873        -0.355422
 H         3.629818        -1.815243         0.167973
 H         1.792730        -2.234711        -1.872220
 H         3.453881         1.394102        -1.660270
 H         1.845446         1.544188        -2.001983
 H         0.905305         2.588066         0.602497
