19
Iteration:  4429charge 0 multiplicity 1
 C        -0.092471        -0.515941         0.352182
 C         1.310017        -0.101369         0.118300
 C         2.598298        -0.110021         0.877157
 C         3.363255        -1.010266        -0.105753
 C         2.279493        -0.523533        -1.118231
 O         2.049328        -1.369866        -2.215053
 C         2.566367         1.109390        -1.314711
 C         2.199248         1.154842         0.128777
 O         2.045747         2.323966         0.872307
 H        -0.024235        -1.432825        -0.306387
 H        -0.272899        -0.945031         1.412193
 H        -0.881306         0.267194         0.246057
 H         2.777387        -0.007269         2.052490
 H         4.353402        -0.700202        -0.552555
 H         3.316931        -1.986480         0.262715
 H         1.083500        -1.567724        -2.280168
 H         3.575558         1.278170        -1.722379
 H         1.827193         1.506905        -1.905377
 H         1.705939         2.854433         0.142927
