19
Iteration:  2423
 C         0.086440        -0.841573         0.504161
 C         1.467867        -0.277858         0.131042
 C         2.660429         0.002185         0.854205
 C         3.531343        -0.808684        -0.085564
 C         2.395038        -0.476112        -1.181447
 O         1.885082        -1.289772        -2.205789
 C         2.586322         1.062671        -1.383294
 C         2.098113         1.219104         0.065585
 O         1.706963         2.365119         0.763561
 H        -0.145880        -0.878383         1.580996
 H        -0.682229        -0.114195         0.146094
 H        -0.317458        -1.800336         0.051302
 H         2.887818        -0.078705         1.971320
 H         4.559752        -0.334654        -0.174873
 H         3.510580        -1.872003         0.137626
 H         0.933064        -1.323197        -2.022414
 H         3.505417         1.576637        -1.860037
 H         1.815222         1.318324        -2.116012
 H         2.214263         2.319132         1.608292
