19
Iteration:  3664
 C         0.011786        -0.744449         0.498727
 C         1.348500        -0.160879         0.116085
 C         2.777434        -0.289482         0.830242
 C         3.443808        -0.926152        -0.317041
 C         2.267025        -0.454744        -1.201867
 O         1.958950        -1.096739        -2.368928
 C         2.462092         1.178380        -1.288304
 C         2.147322         1.136210         0.251978
 O         1.906126         2.248221         1.020875
 H        -0.144604        -0.583505         1.602627
 H        -0.815936        -0.306103        -0.052330
 H         0.001348        -1.821655         0.321970
 H         2.800433        -0.182238         1.942708
 H         4.467978        -0.644940        -0.524626
 H         3.440347        -2.081469        -0.370472
 H         1.051975        -1.393404        -2.328198
 H         3.426472         1.706022        -1.582274
 H         1.555958         1.644978        -1.728929
 H         2.542811         2.944809         0.724100
