19
Iteration:  1368charge 0 multiplicity 1
 C         0.043975        -0.735151         0.368701
 C         1.382038        -0.138956         0.198965
 C         2.725741        -0.036745         0.919180
 C         3.434641        -0.946531        -0.088219
 C         2.294905        -0.488914        -1.087053
 O         1.936032        -1.181346        -2.261953
 C         2.591938         0.986756        -1.350968
 C         2.103106         1.114717         0.087958
 O         1.783774         2.370514         0.743660
 H        -0.527063        -0.163713         1.067092
 H        -0.650792        -0.559555        -0.452118
 H         0.105629        -1.768732         0.628619
 H         2.896379         0.178321         1.953964
 H         4.489192        -0.720773        -0.218862
 H         3.230279        -2.028194         0.256877
 H         1.789280        -2.073638        -1.989777
 H         3.590223         1.331150        -1.545974
 H         1.704376         1.428442        -1.891464
 H         2.594633         2.866842         1.006871
