19
Iteration:   631charge 0 multiplicity 1
 C        -0.084622        -0.433231         0.160294
 C         1.370979        -0.195524         0.114121
 C         2.641801        -0.070520         0.932219
 C         3.401895        -1.011670         0.018531
 C         2.377105        -0.495212        -1.094083
 O         2.049044        -1.172109        -2.234671
 C         2.618788         1.010996        -1.304883
 C         2.175576         1.046621         0.182216
 O         1.793024         2.282481         0.752577
 H        -0.707029        -0.008595         0.945780
 H        -0.649697        -0.081179        -0.786714
 H        -0.333024        -1.449321         0.148139
 H         2.879301        -0.009602         1.992863
 H         4.494361        -0.917552        -0.106509
 H         3.132624        -2.036324         0.457269
 H         1.969267        -2.105783        -2.113498
 H         3.598082         1.496320        -1.631230
 H         1.787007         1.405644        -1.874153
 H         2.002128         2.299967         1.687110
