19
Iteration:   753
 C        -0.141546        -0.457931         0.448068
 C         1.397061        -0.183824         0.173499
 C         2.596826        -0.262795         0.966297
 C         3.429989        -1.060654        -0.113422
 C         2.464732        -0.471761        -1.118068
 O         2.105871        -1.125225        -2.335693
 C         2.710697         1.026572        -1.217153
 C         2.135562         1.115554         0.131765
 O         1.631141         2.298455         0.688004
 H        -0.580588         0.263614         1.114443
 H        -0.713536        -0.199679        -0.541512
 H        -0.579835        -1.376116         0.717307
 H         2.899094        -0.019826         1.959908
 H         4.459347        -0.886847        -0.404045
 H         3.233690        -2.182038         0.048502
 H         1.804238        -2.042868        -2.070537
 H         3.801186         1.288155        -1.381887
 H         2.011794         1.630613        -1.851043
 H         2.411328         2.864099         0.627656
