19
Iteration:  1653
 C         0.024053        -0.550100         0.660012
 C         1.470740        -0.251197         0.191072
 C         2.811009         0.021751         0.807227
 C         3.487335        -0.985607        -0.223972
 C         2.355669        -0.499526        -1.062776
 O         1.987229        -1.213885        -2.235485
 C         2.545166         1.030061        -1.350153
 C         2.098119         1.163935         0.108101
 O         1.606189         2.272389         0.693915
 H        -0.100151        -0.008029         1.569950
 H        -0.611997        -0.191057        -0.113094
 H        -0.291499        -1.639982         0.746920
 H         3.044182        -0.064276         1.860080
 H         4.533930        -0.994878        -0.525741
 H         3.178184        -2.076913        -0.058809
 H         2.745963        -1.448807        -2.768191
 H         3.446251         1.490710        -1.705931
 H         1.827858         1.350509        -2.140292
 H         0.884757         2.071861         1.355244
