19
Iteration:  3715
 C        -0.000428        -0.437730         0.632031
 C         1.417148        -0.180346         0.094307
 C         2.760996        -0.234832         0.765742
 C         3.466402        -0.953981        -0.367822
 C         2.336366        -0.461343        -1.207105
 O         1.915929        -1.117957        -2.348285
 C         2.426384         1.105229        -1.300259
 C         2.157433         1.079457         0.266448
 O         1.796453         2.055761         1.079991
 H        -0.489455         0.441294         1.051895
 H        -0.653634        -0.563374        -0.283700
 H        -0.079559        -1.463295         1.106351
 H         3.037054        -0.267294         1.815123
 H         4.554056        -0.515495        -0.722633
 H         3.458548        -2.040621        -0.329698
 H         2.715011        -1.030467        -2.931894
 H         3.350646         1.510702        -1.777353
 H         1.610942         1.543233        -1.870437
 H         1.979887         2.943641         0.758035
