19
Iteration:  1822charge 0 multiplicity 1
 C         0.215622        -0.591914         0.682296
 C         1.490846        -0.251606         0.118840
 C         2.755413        -0.011838         0.881075
 C         3.583659        -0.960431        -0.084912
 C         2.339774        -0.464373        -1.216407
 O         1.928200        -1.269405        -2.255994
 C         2.483070         1.074745        -1.449235
 C         1.981425         1.105983         0.079688
 O         1.544891         2.266797         0.749787
 H         0.222147        -0.157902         1.711584
 H        -0.692507        -0.331956         0.038987
 H         0.194283        -1.700607         0.827795
 H         2.943388         0.088909         1.949866
 H         4.697518        -0.824369        -0.178970
 H         3.420862        -2.024082         0.140480
 H         1.930330        -0.702182        -3.046965
 H         3.404888         1.616787        -1.807714
 H         1.654617         1.367314        -2.109186
 H         2.104196         2.469858         1.541018
