19
Iteration:  3776
 C         0.008201        -0.555302         0.500935
 C         1.404429        -0.176946         0.098157
 C         2.848971        -0.176396         0.822155
 C         3.476015        -1.014241        -0.354919
 C         2.339610        -0.488853        -1.151822
 O         1.816316        -0.989996        -2.356240
 C         2.584051         1.142350        -1.265012
 C         2.236064         1.099441         0.197667
 O         1.687314         2.143693         0.977128
 H        -0.599964         0.280840         0.873713
 H        -0.463966        -1.039893        -0.339244
 H        -0.046730        -1.209559         1.344233
 H         3.064775        -0.261802         1.859914
 H         4.421266        -0.862222        -0.652533
 H         3.318662        -2.074177        -0.144385
 H         1.482249        -1.902494        -2.141313
 H         3.616216         1.361343        -1.598534
 H         1.796916         1.549699        -1.945464
 H         2.239138         2.319198         1.749504
