19
Iteration:  2873charge 0 multiplicity 1
 C         0.158168        -0.792366         0.589531
 C         1.471757        -0.162628         0.165048
 C         2.899202        -0.080371         0.867645
 C         3.507403        -0.972888        -0.237770
 C         2.289593        -0.433261        -1.160467
 O         1.830467        -1.050528        -2.334614
 C         2.488320         1.101531        -1.286073
 C         2.157166         1.127650         0.225136
 O         1.567374         2.240246         0.770852
 H         0.269527        -1.311224         1.574828
 H        -0.628307        -0.043722         0.617553
 H        -0.095367        -1.676297        -0.059647
 H         2.999664        -0.149233         1.921802
 H         4.418407        -0.592029        -0.704758
 H         3.270512        -2.012826        -0.077159
 H         2.068058        -1.977772        -2.332889
 H         3.447338         1.448889        -1.791990
 H         1.677130         1.441657        -1.942224
 H         2.195821         2.966820         0.967227
