19
Iteration:  3684
 C         0.007065        -0.610279         0.553776
 C         1.342939        -0.248038         0.144963
 C         2.755030        -0.107740         0.795867
 C         3.400613        -0.928280        -0.338779
 C         2.316026        -0.423663        -1.241404
 O         1.974490        -1.113225        -2.477771
 C         2.396454         1.120996        -1.278935
 C         2.137821         1.137270         0.268727
 O         1.921661         2.150897         1.119414
 H        -0.384844        -0.168287         1.493713
 H        -0.525096        -0.354697        -0.376397
 H        -0.135705        -1.714814         0.716392
 H         3.076868        -0.195628         1.855581
 H         4.342670        -0.788078        -0.687943
 H         3.381451        -1.999873        -0.140554
 H         1.951359        -2.034165        -2.115171
 H         3.444981         1.413288        -1.629237
 H         1.554902         1.627333        -1.762953
 H         2.342589         2.904279         0.643161
