19
Iteration:  3237
 C         0.098155        -0.885762         0.504758
 C         1.356845        -0.226890         0.212165
 C         2.762749        -0.170887         0.834705
 C         3.429698        -0.853646        -0.406024
 C         2.240489        -0.346447        -1.269604
 O         2.072920        -1.230396        -2.337579
 C         2.270375         1.124526        -1.258554
 C         2.138789         1.172590         0.247555
 O         1.875804         2.363485         1.032098
 H         0.199334        -1.936142         0.144224
 H        -0.080239        -0.717781         1.541721
 H        -0.774338        -0.395887         0.050416
 H         3.073063        -0.166425         1.911214
 H         4.403769        -0.687902        -0.824810
 H         3.400658        -1.943366        -0.416817
 H         1.267223        -1.278794        -2.838101
 H         3.257102         1.530864        -1.663336
 H         1.460789         1.684742        -1.748209
 H         2.708550         2.596208         1.468243
