19
Iteration:   710
 C         0.059814        -0.655003         0.416505
 C         1.322735        -0.088008        -0.047287
 C         2.450583        -0.023569         0.817543
 C         3.242775        -1.085502        -0.014126
 C         2.387293        -0.514656        -1.148391
 O         2.135330        -1.204638        -2.337760
 C         2.748498         0.977543        -1.274536
 C         2.082971         1.254365         0.065208
 O         1.881711         2.340249         0.998260
 H        -0.136545        -0.220592         1.411614
 H        -0.982057        -0.447307        -0.274592
 H         0.133070        -1.716815         0.569558
 H         2.397241         0.037665         1.892781
 H         4.359254        -1.012947        -0.008932
 H         2.745360        -2.104112         0.226127
 H         1.853355        -2.109974        -2.163538
 H         3.841999         1.255088        -1.262282
 H         2.273180         1.276258        -2.259793
 H         1.375622         3.072293         0.630417
