19
Iteration:  3685charge 0 multiplicity 1
 C         0.004721        -0.611002         0.556860
 C         1.349668        -0.252324         0.140655
 C         2.762288        -0.110614         0.795975
 C         3.398652        -0.924035        -0.337725
 C         2.307829        -0.434894        -1.242088
 O         1.975265        -1.108795        -2.475373
 C         2.398079         1.123606        -1.289874
 C         2.136203         1.133162         0.268696
 O         1.920207         2.152617         1.124715
 H        -0.399841        -0.119153         1.484254
 H        -0.512577        -0.352692        -0.364100
 H        -0.155481        -1.695554         0.720497
 H         3.067628        -0.163348         1.884576
 H         4.329408        -0.790028        -0.683423
 H         3.370820        -2.020693        -0.155641
 H         2.011372        -2.048347        -2.127670
 H         3.446809         1.418022        -1.639727
 H         1.557757         1.651697        -1.767060
 H         2.326301         2.906849         0.662263
