19
Iteration:   983
 C        -0.207836        -0.378295         0.312992
 C         1.352499        -0.186411         0.188615
 C         2.698039        -0.241169         0.989520
 C         3.449494        -0.887410        -0.166748
 C         2.314195        -0.536345        -1.031711
 O         2.177400        -1.147754        -2.279509
 C         2.531382         0.938685        -1.324265
 C         2.171323         1.102306         0.175062
 O         1.756777         2.263373         0.777189
 H        -0.516778         0.281240         1.102054
 H        -0.724238        -0.126307        -0.716959
 H        -0.442856        -1.442387         0.567294
 H         2.933309        -0.190652         2.075511
 H         4.418836        -0.702588        -0.550468
 H         3.522601        -2.045760        -0.016829
 H         2.217412        -2.149732        -2.172844
 H         3.439478         1.337238        -1.803271
 H         1.632494         1.197712        -1.996865
 H         2.523631         2.829346         0.943199
