19
Iteration:  4715charge 0 multiplicity 1
 C        -0.062335        -0.571669         0.473745
 C         1.313353        -0.133780         0.081790
 C         2.650115        -0.055114         0.858511
 C         3.380222        -0.968071        -0.062597
 C         2.270676        -0.573755        -1.113845
 O         1.976910        -1.290942        -2.245701
 C         2.638205         0.918369        -1.305768
 C         2.149069         1.170465         0.142818
 O         2.021286         2.381499         0.785754
 H        -0.600818        -0.694603        -0.466395
 H        -0.249217        -1.396185         1.142916
 H        -0.817423         0.109403         0.924720
 H         2.662816        -0.069996         1.922056
 H         4.538963        -0.893770        -0.314855
 H         3.215366        -1.959695         0.264927
 H         2.147836        -0.760821        -3.041974
 H         3.682599         1.403732        -1.589267
 H         1.990745         1.441271        -2.036955
 H         1.056861         2.503492         0.773030
