19
Iteration:  4817charge 0 multiplicity 1
 C        -0.064320        -0.375156         0.451153
 C         1.374418        -0.195477         0.075131
 C         2.740769        -0.075175         0.875343
 C         3.361582        -0.981219        -0.082638
 C         2.335342        -0.473587        -1.139633
 O         1.966931        -1.346952        -2.146344
 C         2.663503         1.003965        -1.371349
 C         2.225200         1.092547         0.129847
 O         1.847232         2.224920         0.815127
 H        -0.725733        -0.486088        -0.449397
 H        -0.191712        -1.326702         0.957323
 H        -0.616303         0.434398         0.892263
 H         2.986281         0.119239         1.906565
 H         4.360410        -0.625669        -0.345267
 H         3.245987        -2.068160         0.204222
 H         1.446156        -0.845792        -2.813177
 H         3.664127         1.475313        -1.630459
 H         1.859428         1.447099        -1.973450
 H         0.978993         2.437833         0.416303
