19
Iteration:  2047charge 0 multiplicity 1
 C         0.044761        -0.602681         0.591915
 C         1.412107        -0.249008         0.116067
 C         2.808629        -0.064302         0.908937
 C         3.583848        -0.836342        -0.248516
 C         2.296475        -0.495051        -1.164721
 O         2.077912        -1.346493        -2.271974
 C         2.351553         1.034677        -1.356063
 C         2.126138         1.149327         0.127129
 O         1.633311         2.272585         0.856139
 H        -0.261881         0.217618         1.265503
 H        -0.771731        -0.852864        -0.115490
 H         0.256632        -1.580317         1.084793
 H         2.972918         0.035222         1.955403
 H         4.618484        -0.450656        -0.269632
 H         3.620250        -1.951071         0.048159
 H         1.547614        -0.853891        -2.945748
 H         3.158642         1.485943        -1.944105
 H         1.382095         1.516870        -1.615123
 H         2.273311         2.937084         0.604723
