19
Iteration:  2276charge 0 multiplicity 1
 C         0.128607        -0.607672         0.505753
 C         1.489397        -0.293781         0.210539
 C         2.748751        -0.099417         0.866173
 C         3.490404        -0.791693        -0.303775
 C         2.323435        -0.440866        -1.197042
 O         2.031190        -1.334098        -2.146290
 C         2.413241         1.165812        -1.361777
 C         2.169752         1.101242         0.145535
 O         1.590862         2.217483         0.798949
 H        -0.435811         0.303553         0.914256
 H        -0.546219        -0.829092        -0.353773
 H         0.033584        -1.372146         1.318769
 H         3.052808        -0.242618         1.916490
 H         4.452558        -0.390937        -0.637901
 H         3.628048        -1.876652        -0.040047
 H         1.094377        -1.319351        -2.532596
 H         3.442256         1.461241        -1.750704
 H         1.473023         1.684971        -1.781146
 H         2.348000         2.606968         1.230809
