19
Iteration:   441charge 0 multiplicity 1
 C        -0.194030        -0.549742         0.067401
 C         1.347757        -0.071905         0.090977
 C         2.624630        -0.125094         0.974920
 C         3.411950        -1.080787         0.051018
 C         2.393310        -0.473925        -1.042882
 O         1.957463        -1.190275        -2.122040
 C         2.728181         0.990535        -1.264835
 C         2.182509         1.123358         0.192967
 O         1.824064         2.311386         0.771278
 H        -0.873016        -0.356053         0.934374
 H        -0.661859        -0.193319        -0.778608
 H        -0.074297        -1.657821        -0.063668
 H         2.848308        -0.239286         2.045935
 H         4.526649        -1.108394        -0.152649
 H         3.046590        -2.057461         0.210373
 H         2.619637        -1.249298        -2.897432
 H         3.754749         1.283111        -1.471387
 H         1.985332         1.493967        -1.995652
 H         2.047887         2.972610         0.074403
