19
Iteration:  2556
 C         0.171615        -0.618769         0.653913
 C         1.526946        -0.218534         0.118367
 C         2.803041        -0.061147         0.861905
 C         3.498461        -0.953298        -0.216197
 C         2.348968        -0.499580        -1.169617
 O         1.910711        -1.200679        -2.315666
 C         2.600564         1.049473        -1.303725
 C         2.057459         1.166821         0.204812
 O         1.436391         2.323742         0.679244
 H        -0.301966         0.370341         1.036232
 H        -0.454821        -0.961990        -0.169750
 H         0.264226        -1.345859         1.486874
 H         2.841101        -0.172787         1.898292
 H         4.557856        -0.825933        -0.560907
 H         3.496958        -2.032287        -0.004601
 H         2.124103        -2.134727        -2.236834
 H         3.649630         1.377572        -1.451212
 H         1.885419         1.487407        -2.014944
 H         1.943313         2.469452         1.504906
