19
Iteration:  2100
 C         0.013485        -0.728729         0.576080
 C         1.381273        -0.143626         0.056415
 C         3.014284         0.042778         0.831277
 C         3.449409        -0.857967        -0.348037
 C         2.300432        -0.378564        -1.163492
 O         2.042269        -1.410864        -2.117479
 C         2.498720         1.147313        -1.316311
 C         2.149904         1.123065         0.163546
 O         1.572719         2.218764         0.793690
 H        -0.361291         0.073380         1.278276
 H        -0.658168        -0.730794        -0.270696
 H        -0.118620        -1.689473         0.991648
 H         3.333514        -0.077717         1.829623
 H         4.511392        -0.784952        -0.639136
 H         3.334136        -1.899527         0.036934
 H         1.114335        -1.250643        -2.446182
 H         3.428253         1.603864        -1.665018
 H         1.751629         1.438040        -2.081777
 H         1.796204         2.508528         1.662248
