19
Iteration:  4364
 C         0.016773        -0.325920         0.460826
 C         1.387394        -0.097795         0.095530
 C         2.670546        -0.168450         0.900817
 C         3.389228        -1.153857        -0.168270
 C         2.349107        -0.533083        -1.121839
 O         1.994116        -1.293002        -2.260789
 C         2.679010         0.976007        -1.320492
 C         2.182756         1.163629         0.179655
 O         1.771674         2.323170         0.836610
 H         0.031878        -1.244576         1.120291
 H        -0.397594         0.532399         1.081967
 H        -0.714994        -0.510641        -0.354261
 H         2.765010        -0.078220         2.049081
 H         4.498754        -0.949056        -0.489634
 H         3.218247        -2.203294         0.027922
 H         1.298384        -0.833170        -2.740067
 H         3.734104         1.256685        -1.748060
 H         2.103191         1.468785        -2.082180
 H         0.781845         2.319684         0.722430
