19
Iteration:  2834charge 0 multiplicity 1
 C         0.135402        -0.850302         0.454881
 C         1.399107        -0.155558         0.105994
 C         2.908343        -0.016733         0.785633
 C         3.575789        -0.934656        -0.202621
 C         2.351536        -0.432478        -1.097987
 O         1.727003        -1.081616        -2.264853
 C         2.566583         1.100400        -1.269655
 C         2.107127         1.189887         0.098248
 O         1.628971         2.169745         0.903554
 H         0.332843        -1.453416         1.362508
 H        -0.674198        -0.188276         0.813015
 H        -0.181220        -1.410408        -0.399369
 H         2.947014         0.154555         1.870299
 H         4.565260        -0.744869        -0.688000
 H         3.724349        -2.043228         0.162909
 H         1.407133        -1.891819        -1.704863
 H         3.555973         1.509326        -1.391472
 H         1.855973         1.475046        -2.019173
 H         1.892975         2.954664         0.391611
