19
Iteration:  2572charge 0 multiplicity 1
 C         0.067517        -0.701123         0.634358
 C         1.417370        -0.211534         0.122771
 C         2.754714        -0.026471         0.859360
 C         3.533251        -0.877706        -0.138154
 C         2.390538        -0.494283        -1.164490
 O         1.975857        -1.149242        -2.306039
 C         2.526725         1.020357        -1.416766
 C         2.179601         1.158669         0.049818
 O         1.554386         2.263976         0.776590
 H        -0.584587         0.090795         0.987085
 H        -0.431354        -1.315666        -0.156465
 H         0.172741        -1.261714         1.585230
 H         3.009115        -0.007939         1.982782
 H         4.613177        -0.694065        -0.258350
 H         3.311064        -1.919338         0.241232
 H         1.505692        -1.883932        -1.930302
 H         3.538630         1.387815        -1.799791
 H         1.671308         1.362286        -2.094594
 H         1.929505         2.570101         1.646962
