19
Iteration:    25charge 0 multiplicity 1
 C        -0.241510        -0.502676         0.065407
 C         1.244440        -0.036383        -0.050617
 C         2.462706        -0.181797         0.891353
 C         3.403140        -0.972693         0.012204
 C         2.385337        -0.436399        -1.140407
 O         2.134834        -1.503639        -2.094790
 C         2.795516         1.115917        -1.217774
 C         2.153619         1.156348         0.175345
 O         1.907952         2.336166         0.824256
 H        -0.638023         0.172236         0.997438
 H        -0.866340        -0.309370        -0.877645
 H        -0.383045        -1.529067         0.333902
 H         2.430064        -0.126741         1.995209
 H         4.488418        -0.532812        -0.035357
 H         3.455359        -2.002609         0.160405
 H         1.243025        -1.841878        -1.712203
 H         3.856816         1.399466        -1.350924
 H         2.178540         1.620637        -2.036403
 H         2.776379         2.688156         1.138408
