19
Iteration:  3136charge 0 multiplicity 1
 C         0.114184        -0.650104         0.607585
 C         1.496135        -0.241203         0.127052
 C         2.901311        -0.150630         0.797064
 C         3.502390        -0.917281        -0.407012
 C         2.326238        -0.391185        -1.207000
 O         1.855521        -1.174132        -2.315178
 C         2.404893         1.192630        -1.275115
 C         2.214141         1.128048         0.230380
 O         1.527862         2.161108         0.964482
 H        -0.674713        -0.436866        -0.133988
 H         0.045505        -1.712036         0.824926
 H        -0.038994        -0.098550         1.567676
 H         3.140724        -0.344464         1.839796
 H         4.468341        -0.520325        -0.682372
 H         3.311066        -1.949536        -0.038491
 H         2.553467        -1.808242        -2.630050
 H         3.328853         1.547290        -1.730911
 H         1.627306         1.605371        -1.818194
 H         2.237508         2.853845         1.049107
