19
Iteration:  2856
 C         0.246486        -0.832118         0.524782
 C         1.520290        -0.276264         0.204747
 C         2.815061        -0.048339         0.878727
 C         3.523200        -0.925455        -0.247927
 C         2.380115        -0.502346        -1.156316
 O         1.706301        -0.981304        -2.281089
 C         2.559873         1.061733        -1.368007
 C         2.114751         1.194823         0.095532
 O         1.543261         2.244359         0.887731
 H         0.178692        -1.307384         1.522349
 H        -0.481867         0.010742         0.575188
 H         0.002028        -1.460652        -0.318193
 H         3.085002        -0.010894         1.969666
 H         4.650159        -1.004429        -0.285534
 H         3.133866        -1.925818         0.173643
 H         1.783459        -1.925942        -2.271029
 H         3.545830         1.410637        -1.649900
 H         1.805726         1.494251        -2.048060
 H         2.031365         3.027535         0.558456
