19
Iteration:   850charge 0 multiplicity 1
 C        -0.068497        -0.592993         0.347374
 C         1.336308        -0.098557         0.117164
 C         2.588330        -0.138942         0.921491
 C         3.424813        -0.902542        -0.060594
 C         2.335501        -0.462672        -1.173261
 O         2.040747        -1.310511        -2.328777
 C         2.660611         1.076651        -1.304389
 C         2.184787         1.124339         0.202776
 O         1.839729         2.302868         0.859591
 H        -0.647669        -0.165914         1.195051
 H        -0.660199        -0.220647        -0.507013
 H        -0.285937        -1.678140         0.348149
 H         2.694070        -0.279500         1.979818
 H         4.479599        -0.662514        -0.107262
 H         3.186829        -1.950910         0.291147
 H         1.870045        -2.265265        -2.038846
 H         3.751404         1.127102        -1.463958
 H         2.019065         1.683780        -1.946914
 H         1.628864         3.045891         0.261762
