19
Iteration:  1872charge 0 multiplicity 1
 C         0.043275        -0.670851         0.598147
 C         1.479193        -0.249534         0.202213
 C         2.770801        -0.069099         0.895775
 C         3.507777        -0.740172        -0.280257
 C         2.311855        -0.579676        -1.209257
 O         2.014600        -1.449030        -2.267650
 C         2.417127         1.063322        -1.346145
 C         2.039975         1.190472         0.124474
 O         1.668128         2.344322         0.896360
 H        -0.258638         0.039777         1.343487
 H        -0.432609        -0.398432        -0.310011
 H        -0.163056        -1.647615         1.106824
 H         3.017113        -0.017770         1.987392
 H         4.422775        -0.304771        -0.694334
 H         3.840191        -1.831929        -0.186735
 H         2.195332        -0.905947        -3.012733
 H         3.419773         1.446423        -1.538760
 H         1.674272         1.355662        -2.150465
 H         2.171088         3.164007         0.695180
