19
Iteration:  1960
 C         0.139776        -0.818135         0.658436
 C         1.402844        -0.150323         0.108400
 C         2.700324        -0.005352         0.787133
 C         3.491966        -0.838428        -0.206444
 C         2.356608        -0.489859        -1.191179
 O         1.961143        -1.361708        -2.146889
 C         2.573253         1.184899        -1.383386
 C         2.052827         1.160203         0.051638
 O         1.658913         2.294891         0.752962
 H        -0.137394        -0.719718         1.732753
 H        -0.716945        -0.459500         0.021697
 H         0.111978        -1.976493         0.424172
 H         2.903117         0.160023         1.824780
 H         4.549597        -0.574928        -0.360239
 H         3.527356        -1.959182         0.089522
 H         1.046039        -1.207825        -2.316084
 H         3.634413         1.528096        -1.391930
 H         2.056215         1.882835        -2.092982
 H         2.147943         2.450385         1.578242
