19
Iteration:  3475
 C         0.080909        -0.785263         0.635604
 C         1.422906        -0.171937         0.097159
 C         2.842613        -0.243055         0.819777
 C         3.493621        -0.910979        -0.483574
 C         2.283751        -0.373513        -1.212249
 O         1.762806        -1.023726        -2.320250
 C         2.647161         1.229676        -1.259543
 C         2.139199         1.167240         0.167953
 O         1.652856         2.171326         0.989555
 H        -0.560313        -0.167084         1.221566
 H        -0.518874        -1.078320        -0.238515
 H         0.258129        -1.706151         1.223668
 H         3.155608        -0.443782         1.846389
 H         4.575090        -0.683157        -0.839874
 H         3.580384        -2.051926        -0.354625
 H         1.647034        -1.955045        -2.087140
 H         3.700541         1.380325        -1.356813
 H         1.990227         1.709896        -1.943588
 H         2.244322         2.274487         1.743803
