19
Iteration:   888
 C        -0.085530        -0.746433         0.411545
 C         1.334408        -0.241679         0.111764
 C         2.640514        -0.132936         0.883098
 C         3.471646        -1.079110         0.023570
 C         2.353381        -0.550950        -1.052270
 O         2.009594        -0.954908        -2.331234
 C         2.653689         0.929498        -1.221318
 C         2.079918         1.177572         0.142497
 O         1.786593         2.504205         0.648153
 H        -0.488005        -0.322509         1.341119
 H        -0.609261        -0.290819        -0.478042
 H        -0.116807        -1.826188         0.425811
 H         2.694750        -0.284440         1.983437
 H         4.577563        -1.235001        -0.050741
 H         3.182029        -2.074505         0.405221
 H         1.835497        -1.880095        -2.302638
 H         3.698742         1.250175        -1.427313
 H         2.086822         1.336523        -2.099275
 H         2.677426         2.857611         0.650536
