19
Iteration:  1369charge 0 multiplicity 1
 C         0.037149        -0.732589         0.370831
 C         1.391854        -0.143347         0.184172
 C         2.729778        -0.038861         0.921377
 C         3.434184        -0.945303        -0.079570
 C         2.305303        -0.479006        -1.089496
 O         1.938232        -1.184442        -2.261570
 C         2.585116         0.986545        -1.357028
 C         2.093888         1.120202         0.085485
 O         1.786856         2.367410         0.748063
 H        -0.526292        -0.152647         1.101028
 H        -0.684458        -0.565568        -0.458705
 H         0.106243        -1.724957         0.630119
 H         2.885530         0.148656         1.961352
 H         4.470622        -0.725871        -0.241227
 H         3.228256        -2.038391         0.264277
 H         1.759993        -2.092526        -1.955194
 H         3.576318         1.376025        -1.554706
 H         1.703708         1.362198        -1.904847
 H         2.607301         2.853099         1.049610
