19
Iteration:  3835charge 0 multiplicity 1
 C        -0.063533        -0.845808         0.408340
 C         1.330723        -0.190305         0.150416
 C         2.645697        -0.187613         0.851824
 C         3.359585        -0.904117        -0.315725
 C         2.249575        -0.341157        -1.155906
 O         1.945270        -1.187051        -2.277512
 C         2.516792         1.172419        -1.289740
 C         2.136224         1.135197         0.231121
 O         2.064246         2.289036         0.999403
 H        -0.504744        -0.180077         1.151629
 H        -0.809245        -0.823385        -0.442379
 H         0.161469        -1.928241         0.689855
 H         2.868066        -0.292558         1.954681
 H         4.393209        -0.626156        -0.390463
 H         3.111499        -1.942522        -0.362184
 H         1.813601        -0.742292        -3.135360
 H         3.521758         1.121961        -1.691827
 H         1.880865         1.710066        -1.970694
 H         2.968705         2.582963         1.204138
