19
Iteration:  4549
 C        -0.051572        -0.427555         0.502006
 C         1.372949        -0.146147         0.086265
 C         2.685097        -0.110112         0.953401
 C         3.364658        -1.030508        -0.128026
 C         2.328984        -0.480031        -1.143749
 O         1.941132        -1.266615        -2.300078
 C         2.701073         0.948641        -1.358931
 C         2.210586         1.171039         0.172634
 O         1.793135         2.272644         0.805552
 H        -0.764696         0.160591        -0.127212
 H        -0.415855        -1.489187         0.689940
 H        -0.029647         0.001181         1.508846
 H         2.839169         0.310164         2.062967
 H         4.427462        -0.811542        -0.437864
 H         3.266475        -2.022974         0.204325
 H         2.342778        -2.135463        -2.344680
 H         3.760649         1.108533        -1.706545
 H         2.034389         1.419206        -2.166902
 H         1.109668         2.829151         0.337587
