19
Iteration:  4901charge 0 multiplicity 1
 C        -0.076138        -0.612074         0.497151
 C         1.297072        -0.062932         0.045312
 C         2.537051        -0.067624         0.821377
 C         3.378076        -0.963605        -0.055091
 C         2.281803        -0.515480        -1.174361
 O         2.031692        -1.459783        -2.198196
 C         2.663892         1.000248        -1.378289
 C         2.190322         1.232810         0.086084
 O         1.990152         2.378565         0.909520
 H        -0.750405         0.237102         0.180609
 H        -0.311884        -1.651007         0.060559
 H         0.095390        -0.954628         1.629444
 H         2.693812         0.105970         1.905423
 H         4.528882        -0.852451        -0.270469
 H         3.044403        -1.934477         0.231479
 H         1.480702        -0.963753        -2.821740
 H         3.772255         1.338679        -1.489199
 H         2.057200         1.425235        -2.171591
 H         1.443081         2.978909         0.375171
