19
Iteration:  4028charge 0 multiplicity 1
 C         0.024515        -0.697076         0.422668
 C         1.373578        -0.084114         0.034820
 C         2.608628        -0.220001         0.876948
 C         3.371239        -1.015129        -0.113332
 C         2.267599        -0.458926        -1.159292
 O         1.778445        -1.112391        -2.283814
 C         2.710095         1.119653        -1.342981
 C         2.190177         1.143962         0.186952
 O         1.923245         2.304544         0.916503
 H         0.016631        -1.786434         0.291132
 H        -0.293858        -0.332372         1.402157
 H        -0.781302        -0.359465        -0.231218
 H         2.630829        -0.263626         1.987956
 H         4.332968        -0.823667        -0.374038
 H         3.027743        -2.037428        -0.200236
 H         2.489041        -1.715513        -2.550057
 H         3.717522         1.347729        -1.599024
 H         1.989403         1.576615        -2.058872
 H         2.744319         2.441397         1.452247
