19
Iteration:   574
 C        -0.114246        -0.214984         0.308768
 C         1.339022        -0.249758        -0.008836
 C         2.583124        -0.139877         0.945016
 C         3.430898        -0.978360        -0.072170
 C         2.390398        -0.497344        -1.153975
 O         2.149287        -1.339719        -2.287255
 C         2.742983         1.099762        -1.250115
 C         2.128928         1.087877         0.152630
 O         1.720392         2.154258         0.896494
 H        -0.263934         0.467674         1.181804
 H        -0.782530        -0.044619        -0.540400
 H        -0.245379        -1.180117         0.744232
 H         2.452761        -0.056151         2.016809
 H         4.510009        -0.806719        -0.263186
 H         3.320746        -2.051257         0.117070
 H         1.509470        -2.060574        -1.961219
 H         3.735931         1.589499        -1.271795
 H         2.011289         1.504589        -1.979829
 H         1.491311         2.878323         0.263665
