19
Iteration:  1325
 C         0.092352        -0.770348         0.456756
 C         1.417543        -0.184133         0.025487
 C         2.628321        -0.117566         0.857658
 C         3.435284        -1.071216        -0.066523
 C         2.395920        -0.461515        -1.125986
 O         1.842379        -1.157865        -2.168609
 C         2.640656         1.095382        -1.235356
 C         2.107412         1.173820         0.205287
 O         1.753224         2.437778         0.694137
 H        -0.353697        -0.177343         1.288246
 H        -0.667410        -0.640314        -0.386904
 H         0.197854        -1.770639         0.738460
 H         2.775361        -0.052241         1.920886
 H         4.464842        -0.995043        -0.338957
 H         3.077267        -2.165465         0.084526
 H         2.299108        -1.949610        -2.508137
 H         3.721569         1.214788        -1.454690
 H         2.009604         1.619179        -1.979971
 H         1.987270         3.047821        -0.063169
