19
Iteration:  4195charge 0 multiplicity 1
 C        -0.153040        -0.391409         0.445878
 C         1.329438        -0.154509         0.183864
 C         2.689550        -0.246504         0.877760
 C         3.455813        -1.074425        -0.191781
 C         2.372484        -0.458650        -1.180435
 O         1.865357        -1.162150        -2.281557
 C         2.638707         1.025319        -1.209416
 C         2.294309         1.078114         0.158852
 O         1.790720         2.284357         0.824329
 H        -0.884574         0.185584        -0.153347
 H        -0.303197        -1.481510         0.160475
 H        -0.590992        -0.444364         1.508861
 H         2.752053        -0.388084         2.025043
 H         4.479562        -0.903535        -0.526840
 H         3.321235        -2.203995         0.002628
 H         2.674539        -1.301428        -2.820720
 H         3.679839         1.376044        -1.561533
 H         1.935876         1.537694        -1.981413
 H         2.562658         2.905435         0.761904
