19
Iteration:  4120charge 0 multiplicity 1
 C        -0.073427        -0.344021         0.487889
 C         1.354880        -0.164535         0.107157
 C         2.655899        -0.168372         0.826313
 C         3.407510        -0.985491        -0.253413
 C         2.299263        -0.457149        -1.126213
 O         2.072868        -1.280531        -2.375243
 C         2.617042         1.059171        -1.331685
 C         2.175360         1.054990         0.190464
 O         1.829990         2.218186         0.964503
 H        -0.585521        -0.657044        -0.388933
 H        -0.418220        -0.834471         1.377510
 H        -0.506273         0.683732         0.591321
 H         2.730330        -0.277872         1.965157
 H         4.409243        -0.587726        -0.494016
 H         3.141996        -2.037944        -0.272745
 H         1.243384        -1.722974        -2.110306
 H         3.690292         1.296776        -1.561314
 H         1.775229         1.439475        -1.876953
 H         2.502084         2.327622         1.642480
