19
Iteration:  3908
 C         0.003323        -0.427578         0.497575
 C         1.409354        -0.132238         0.067843
 C         2.824740        -0.234975         0.827474
 C         3.473710        -1.006006        -0.284639
 C         2.294328        -0.425035        -1.172098
 O         1.791204        -1.087482        -2.337994
 C         2.665362         1.044037        -1.237452
 C         2.191686         1.081756         0.194025
 O         1.656320         2.115146         0.939171
 H         0.095480        -0.777491         1.537922
 H        -0.590974         0.487020         0.432305
 H        -0.374159        -1.236832        -0.101932
 H         3.017972        -0.184238         1.968757
 H         4.597532        -0.785004        -0.782243
 H         3.182092        -2.106391        -0.097314
 H         2.323847        -1.925610        -2.490099
 H         3.757918         1.336465        -1.246686
 H         2.017659         1.727751        -1.895333
 H         2.106919         2.792826         1.450401
