19
Iteration:  4750charge 0 multiplicity 1
 C        -0.078158        -0.441589         0.530478
 C         1.309476        -0.146911         0.191184
 C         2.636380        -0.167815         0.878996
 C         3.366755        -1.008866        -0.113451
 C         2.308661        -0.522337        -1.212600
 O         2.122686        -1.311974        -2.220222
 C         2.530754         1.049793        -1.319330
 C         2.184805         1.088765         0.081065
 O         1.977119         2.361106         0.807356
 H        -0.355077        -0.931039        -0.502732
 H        -0.312351        -1.286306         1.197054
 H        -0.652397         0.543033         0.561596
 H         2.785142        -0.176024         2.000384
 H         4.513038        -0.811083        -0.094918
 H         3.126151        -2.060520         0.072150
 H         1.297951        -1.217459        -2.725238
 H         3.626305         1.421785        -1.578982
 H         1.716750         1.390714        -1.939420
 H         1.230143         2.697566         0.297500
