19
Iteration:  4278charge 0 multiplicity 1
 C        -0.029413        -0.606727         0.306444
 C         1.327084        -0.116780         0.114813
 C         2.613656        -0.151906         0.850712
 C         3.337593        -1.044573        -0.097320
 C         2.286485        -0.428713        -1.087449
 O         1.878147        -1.299951        -2.252855
 C         2.618186         1.055966        -1.192864
 C         2.153022         1.133440         0.158526
 O         2.026173         2.387493         0.757211
 H        -0.426597        -0.049474         1.156937
 H        -0.631695        -0.347117        -0.508868
 H        -0.039649        -1.627699         0.528584
 H         2.946679        -0.102347         1.912166
 H         4.388845        -0.742471        -0.283153
 H         3.288146        -2.041413         0.277742
 H         2.266363        -0.942115        -3.067457
 H         3.611404         1.294584        -1.466551
 H         1.805234         1.417403        -1.816782
 H         2.298665         2.224733         1.671895
