19
Iteration:   709charge 0 multiplicity 1
 C         0.046824        -0.657269         0.422596
 C         1.326304        -0.091659        -0.046019
 C         2.450259        -0.030002         0.811867
 C         3.244786        -1.086120        -0.006204
 C         2.390143        -0.501978        -1.147851
 O         2.135485        -1.207358        -2.340669
 C         2.751545         0.988710        -1.278321
 C         2.075479         1.256889         0.062130
 O         1.894527         2.345024         0.997647
 H        -0.198261        -0.264172         1.434607
 H        -1.002852        -0.487520        -0.265187
 H         0.135424        -1.723604         0.546646
 H         2.394010         0.008220         1.895672
 H         4.343888        -1.011986        -0.015407
 H         2.745899        -2.107142         0.244152
 H         1.853578        -2.145711        -2.150076
 H         3.869822         1.249106        -1.271681
 H         2.287633         1.284203        -2.250305
 H         1.336616         3.035883         0.609740
