19
Iteration:  1719
 C         0.048681        -0.755713         0.488480
 C         1.350357        -0.150841         0.200853
 C         2.765264         0.062326         0.825496
 C         3.546140        -0.797244        -0.197037
 C         2.302160        -0.485802        -1.027918
 O         2.026281        -1.295205        -2.217563
 C         2.452758         1.043948        -1.398586
 C         2.016431         1.154831         0.010753
 O         1.850664         2.227744         0.910968
 H        -0.514060        -0.286986         1.319885
 H        -0.652386        -0.592068        -0.350716
 H         0.147848        -1.931288         0.520252
 H         2.976134         0.312166         1.856952
 H         4.435340        -0.481159        -0.732011
 H         3.565276        -1.938997         0.062859
 H         1.299864        -1.974172        -1.967999
 H         3.408239         1.540859        -1.697464
 H         1.647605         1.198883        -2.181728
 H         1.540642         2.947057         0.370816
