19
Iteration:  4480charge 0 multiplicity 1
 C        -0.057868        -0.617700         0.328701
 C         1.305018         0.012075         0.108932
 C         2.636113        -0.069808         0.947069
 C         3.366724        -0.974065        -0.090258
 C         2.295455        -0.526476        -1.099641
 O         1.910208        -1.380189        -2.204892
 C         2.641484         0.954277        -1.275842
 C         2.141815         1.159117         0.128449
 O         2.063813         2.353769         0.817632
 H        -0.341407        -1.201513        -0.521562
 H         0.001045        -1.164778         1.244268
 H        -0.724243         0.222722         0.572972
 H         2.898471         0.066844         1.984994
 H         4.380955        -0.657094        -0.332771
 H         3.352542        -2.132470        -0.107572
 H         1.841580        -0.809724        -2.984015
 H         3.645675         1.257800        -1.625463
 H         1.946963         1.534164        -2.089220
 H         1.135768         2.624678         0.607414
