19
Iteration:  4317
 C        -0.090396        -0.430496         0.453051
 C         1.300416        -0.131687         0.105567
 C         2.613926        -0.239740         0.862743
 C         3.377886        -0.973868        -0.104331
 C         2.293769        -0.552767        -1.133011
 O         2.027320        -1.266352        -2.210709
 C         2.558118         0.996206        -1.281321
 C         2.129251         1.126996         0.120660
 O         2.040800         2.338621         0.774442
 H        -0.242121        -0.770037         1.510004
 H        -0.858009         0.378633         0.197131
 H        -0.385191        -1.343628        -0.188941
 H         2.871280        -0.043280         1.831674
 H         4.379048        -0.629024        -0.430472
 H         3.361963        -2.070706        -0.139117
 H         2.378267        -0.845334        -3.023392
 H         3.533549         1.421885        -1.541099
 H         1.868533         1.470941        -1.967930
 H         1.473382         2.305957         1.565721
