19
Iteration:  3155
 C         0.222128        -0.652613         0.607696
 C         1.516897        -0.237783         0.136099
 C         2.867004        -0.135689         0.787727
 C         3.557400        -0.914654        -0.415589
 C         2.305656        -0.400261        -1.211524
 O         1.741727        -1.105393        -2.219668
 C         2.584852         1.192599        -1.259405
 C         2.147002         1.081662         0.153021
 O         1.483848         2.087602         0.981685
 H        -0.510607        -0.776984        -0.215620
 H         0.085033        -1.664466         1.151880
 H        -0.201396         0.279055         1.095201
 H         2.996514        -0.103596         1.887896
 H         4.571120        -0.768391        -0.804724
 H         3.179793        -1.950817        -0.431938
 H         2.458559        -1.639819        -2.602590
 H         3.637349         1.659186        -1.468211
 H         1.721945         1.656106        -1.840712
 H         1.686193         2.962916         0.580055
