19
Iteration:   252
 C         0.003709        -0.577609         0.036390
 C         1.368247        -0.008570        -0.037247
 C         2.535867        -0.056940         0.911486
 C         3.275700        -1.060338         0.002847
 C         2.356652        -0.485122        -1.080546
 O         1.916887        -1.326100        -1.994836
 C         2.769269         1.035419        -1.278057
 C         2.259805         1.212911         0.150175
 O         1.801592         2.325067         0.769581
 H        -0.425580        -0.193854         0.952142
 H        -0.478571        -0.103375        -0.755875
 H         0.141008        -1.762190         0.040713
 H         2.350293        -0.134222         2.005918
 H         4.345963        -1.235222        -0.002914
 H         2.790588        -2.091671         0.208670
 H         2.706064        -1.604529        -2.431904
 H         3.809767         1.275854        -1.492952
 H         2.079831         1.562411        -1.990848
 H         2.008375         2.166726         1.724127
