19
Iteration:   799charge 0 multiplicity 1
 C        -0.129823        -0.329632         0.321002
 C         1.390023        -0.205022         0.128133
 C         2.640015        -0.125330         1.029884
 C         3.421927        -0.953102        -0.015179
 C         2.350378        -0.465276        -1.148622
 O         2.083801        -1.274458        -2.342852
 C         2.613990         1.044069        -1.415453
 C         2.200604         1.028537         0.124186
 O         1.785806         2.254262         0.849345
 H        -0.626893         0.278523         1.051342
 H        -0.782273        -0.139805        -0.644941
 H        -0.366736        -1.330998         0.577861
 H         2.927251         0.198465         2.017640
 H         4.460772        -0.581225        -0.043374
 H         3.505127        -2.081397         0.050903
 H         2.222872        -2.195275        -2.142307
 H         3.523010         1.528524        -1.818353
 H         1.668358         1.326828        -1.995579
 H         1.376090         1.961067         1.661899
