19
Iteration:  1677
 C         0.116405        -0.589477         0.553541
 C         1.475710        -0.109373         0.158363
 C         2.775467        -0.155826         0.941892
 C         3.487801        -0.904088        -0.193755
 C         2.307917        -0.511032        -1.127931
 O         1.914920        -1.318654        -2.302622
 C         2.495687         1.066350        -1.312271
 C         2.170889         1.210222         0.180044
 O         1.630948         2.334866         0.696480
 H        -0.046307        -0.095889         1.453126
 H        -0.685409        -0.467207        -0.183587
 H         0.129493        -1.649704         0.774554
 H         3.033441        -0.211944         1.986208
 H         4.422671        -0.433937        -0.400023
 H         3.714216        -2.005560        -0.115214
 H         2.499001        -2.041407        -2.489167
 H         3.401459         1.461700        -1.740299
 H         1.763716         1.522361        -1.910971
 H         0.729749         2.159044         1.031928
