19
Iteration:   918charge 0 multiplicity 1
 C         0.064413        -0.716362         0.455362
 C         1.325841        -0.013224         0.027507
 C         2.561691        -0.095955         0.926708
 C         3.261477        -0.964626        -0.069490
 C         2.263065        -0.448198        -1.123760
 O         2.085090        -1.189412        -2.325196
 C         2.744875         1.025674        -1.257251
 C         2.224801         1.154802         0.161062
 O         1.746270         2.330054         0.697947
 H        -0.259230        -0.273675         1.366649
 H        -0.805890        -0.553834        -0.318598
 H         0.225875        -1.770438         0.523231
 H         2.877579        -0.315890         1.955773
 H         4.299158        -1.115251        -0.229837
 H         2.870943        -2.051878         0.209243
 H         1.738118        -2.070370        -2.046696
 H         3.841124         1.148776        -1.361604
 H         2.041486         1.540483        -1.988012
 H         2.173483         2.494949         1.581708
