19
Iteration:  2833
 C         0.129561        -0.847993         0.453421
 C         1.385454        -0.149577         0.108895
 C         2.902163        -0.019164         0.794852
 C         3.584208        -0.921233        -0.220741
 C         2.347535        -0.429907        -1.107056
 O         1.734990        -1.090253        -2.262169
 C         2.561367         1.087551        -1.262232
 C         2.111925         1.186517         0.100800
 O         1.634510         2.170046         0.903688
 H         0.345867        -1.493650         1.377382
 H        -0.656332        -0.165719         0.830361
 H        -0.179510        -1.428531        -0.433881
 H         2.969998         0.142797         1.858505
 H         4.572477        -0.699326        -0.661914
 H         3.651531        -2.028808         0.169380
 H         1.416158        -1.856881        -1.668551
 H         3.584044         1.509168        -1.421468
 H         1.870835         1.499272        -2.016980
 H         1.894582         2.948413         0.397974
