19
Iteration:  2354
 C         0.097541        -0.666264         0.748104
 C         1.357170        -0.162526         0.111898
 C         2.676850        -0.212008         0.829692
 C         3.476407        -0.849538        -0.250126
 C         2.374578        -0.445977        -1.157430
 O         2.099324        -1.303760        -2.249219
 C         2.453696         1.108064        -1.278837
 C         2.089295         1.108441         0.140190
 O         1.687968         2.325775         0.682343
 H        -0.529910         0.089766         1.223738
 H        -0.596101        -1.145667        -0.015321
 H         0.217886        -1.585526         1.394463
 H         2.745877        -0.211531         1.888855
 H         4.452510        -0.432375        -0.519667
 H         3.546597        -1.965013        -0.160680
 H         1.727938        -0.778805        -3.029388
 H         3.260009         1.621081        -1.772526
 H         1.575518         1.433208        -1.871161
 H         2.356013         2.628587         1.316954
