19
Iteration:   899charge 0 multiplicity 1
 C        -0.028562        -0.716706         0.428315
 C         1.376355        -0.185000         0.197345
 C         2.657111        -0.069476         0.956357
 C         3.358898        -1.130636         0.013353
 C         2.364667        -0.501233        -1.148188
 O         2.012675        -1.055918        -2.412556
 C         2.717862         0.986335        -1.203998
 C         2.090040         1.121818         0.132829
 O         1.769960         2.482905         0.636280
 H        -0.606739        -0.489474         1.336998
 H        -0.776883        -0.559028        -0.403851
 H         0.037146        -1.799239         0.410280
 H         2.508070         0.010518         2.058175
 H         4.437495        -0.923326        -0.238783
 H         3.020148        -2.144756         0.246607
 H         1.755642        -1.960181        -2.297404
 H         3.789254         1.259746        -1.286704
 H         1.980478         1.432795        -1.912620
 H         2.556542         2.867995         1.095669
