19
Iteration:  4512charge 0 multiplicity 1
 C        -0.038826        -0.531476         0.426164
 C         1.359768        -0.190784         0.101567
 C         2.652371        -0.087550         0.926441
 C         3.439794        -1.108506        -0.097142
 C         2.405959        -0.495579        -1.092206
 O         1.791735        -1.249132        -2.203089
 C         2.696940         1.036587        -1.267243
 C         2.207561         1.149464         0.095408
 O         1.846723         2.360058         0.771634
 H        -0.736313        -0.665936        -0.360908
 H        -0.113057        -1.307233         1.155374
 H        -0.396512         0.414033         0.863553
 H         2.794464         0.105161         1.966879
 H         4.514515        -0.997576        -0.307886
 H         3.159413        -2.256179        -0.059861
 H         2.533085        -1.300818        -2.835465
 H         3.766268         1.273042        -1.513587
 H         1.889118         1.457131        -2.050904
 H         1.348101         2.808127         0.050256
