19
Iteration:  4200
 C        -0.145445        -0.434333         0.444930
 C         1.343723        -0.168947         0.180187
 C         2.659264        -0.236405         0.856698
 C         3.410628        -1.055741        -0.197131
 C         2.399168        -0.488334        -1.128186
 O         1.857486        -1.147194        -2.251352
 C         2.648742         1.012521        -1.276255
 C         2.317061         1.071956         0.185272
 O         1.787751         2.302500         0.831612
 H        -0.815512         0.217835        -0.113645
 H        -0.321108        -1.393275        -0.014001
 H        -0.466859        -0.507772         1.443065
 H         2.800190        -0.334296         1.868725
 H         4.489357        -0.950177        -0.500220
 H         3.239871        -2.073663        -0.044381
 H         2.533547        -1.267259        -2.957431
 H         3.674416         1.382851        -1.425908
 H         2.090882         1.686304        -1.847522
 H         2.504215         2.916031         0.640195
