19
Iteration:   258charge 0 multiplicity 1
 C         0.026153        -0.628465         0.076151
 C         1.388092        -0.009696        -0.012650
 C         2.557342        -0.120901         0.879479
 C         3.230917        -1.127524         0.070029
 C         2.360551        -0.445853        -1.074000
 O         1.946572        -1.311018        -2.003167
 C         2.758936         1.066604        -1.281857
 C         2.284644         1.153435         0.120225
 O         1.771571         2.391654         0.766028
 H        -0.479821        -0.205726         0.977300
 H        -0.634316        -0.103366        -0.755527
 H        -0.132553        -1.644901        -0.059327
 H         2.397975         0.075869         1.934236
 H         4.337689        -1.235560        -0.036763
 H         2.686164        -2.074397         0.134630
 H         2.640113        -1.466432        -2.673175
 H         3.817144         1.391767        -1.546892
 H         2.179689         1.520658        -2.069076
 H         2.075493         2.377014         1.678453
