19
Iteration:   972charge 0 multiplicity 1
 C        -0.117323        -0.441190         0.377009
 C         1.287167        -0.196166         0.107650
 C         2.616291        -0.035305         0.971703
 C         3.469118        -0.932718        -0.119979
 C         2.325973        -0.506868        -1.138751
 O         2.144754        -1.221312        -2.313761
 C         2.557960         0.967013        -1.318379
 C         2.143486         1.088198         0.137037
 O         1.808874         2.220952         0.845075
 H        -0.536727         0.241932         1.100310
 H        -0.680110        -0.091540        -0.600821
 H        -0.526639        -1.438791         0.647687
 H         2.667975        -0.039671         2.082705
 H         4.360476        -0.474820        -0.451106
 H         3.462163        -2.069263         0.086340
 H         2.208468        -2.209108        -2.105213
 H         3.600519         1.245245        -1.595597
 H         1.800033         1.506256        -1.974368
 H         2.653844         2.590616         1.222439
