19
Iteration:  2933charge 0 multiplicity 1
 C         0.030048        -0.593812         0.715328
 C         1.308168        -0.210471         0.109709
 C         2.697067        -0.037012         0.722604
 C         3.567921        -0.776793        -0.295460
 C         2.283159        -0.512034        -1.186017
 O         2.149850        -1.211282        -2.408765
 C         2.212173         1.104903        -1.323563
 C         2.098914         1.159785         0.122045
 O         1.849021         2.114839         0.989565
 H         0.004768        -0.148089         1.737198
 H        -0.892288        -0.273146         0.099304
 H        -0.090528        -1.700733         0.729799
 H         2.808648         0.120138         1.848461
 H         4.502706        -0.376460        -0.584898
 H         3.979104        -1.741825        -0.090645
 H         2.215869        -2.195924        -2.207761
 H         3.023471         1.561241        -1.920946
 H         1.254345         1.136269        -1.905683
 H         2.501283         2.121417         1.729032
