19
Iteration:  4641charge 0 multiplicity 1
 C        -0.062458        -0.508061         0.379099
 C         1.376060        -0.138287         0.177129
 C         2.680479        -0.057078         0.869796
 C         3.446195        -0.947605        -0.129671
 C         2.322348        -0.491694        -1.129144
 O         1.879185        -1.257545        -2.197279
 C         2.650768         0.988224        -1.274115
 C         2.142721         1.152831         0.089379
 O         1.902848         2.300905         0.803234
 H        -0.779850         0.268822        -0.112490
 H        -0.378476        -1.489683        -0.109218
 H        -0.393656        -0.812553         1.440824
 H         2.788636        -0.324466         1.875736
 H         4.527301        -0.953321        -0.210238
 H         3.167804        -1.902255         0.324848
 H         2.278279        -2.143224        -2.004225
 H         3.689964         1.077964        -1.649234
 H         2.026485         1.283575        -2.061391
 H         1.548975         2.902300         0.135936
