19
Iteration:  3461
 C         0.104463        -0.843883         0.555245
 C         1.445845        -0.285365         0.137501
 C         2.836474        -0.193158         0.737261
 C         3.466857        -0.884701        -0.372341
 C         2.300921        -0.325697        -1.233852
 O         1.782101        -0.938023        -2.306561
 C         2.615832         1.124554        -1.290376
 C         2.128360         1.057807         0.251770
 O         1.683423         2.184361         0.990525
 H        -0.366613         0.018943         1.061042
 H        -0.657267        -1.173054        -0.197988
 H         0.318408        -1.631269         1.280739
 H         3.098933        -0.236695         1.837856
 H         4.451873        -0.534363        -0.689208
 H         3.325564        -1.958137        -0.365344
 H         1.128662        -1.543887        -1.892957
 H         3.706427         1.393648        -1.524262
 H         1.919315         1.763660        -1.931781
 H         2.491292         2.742373         1.164794
