19
Iteration:  1685charge 0 multiplicity 1
 C         0.106744        -0.622686         0.559838
 C         1.442043        -0.223842         0.164774
 C         2.688491        -0.102068         0.898839
 C         3.559551        -0.831737        -0.183874
 C         2.344446        -0.486592        -1.132093
 O         1.873225        -1.339018        -2.301920
 C         2.543604         1.104097        -1.342248
 C         2.180072         1.173147         0.163055
 O         1.683671         2.365017         0.739011
 H        -0.247477        -0.168467         1.564567
 H        -0.485495        -0.406505        -0.307369
 H         0.021116        -1.763324         0.854702
 H         2.756718        -0.318756         1.962074
 H         4.561108        -0.501449        -0.559806
 H         3.569000        -1.989037        -0.153215
 H         2.404673        -2.144829        -2.099169
 H         3.479686         1.594407        -1.687461
 H         1.573552         1.466787        -1.888906
 H         0.736114         2.271054         0.887982
