19
Iteration:  3950
 C        -0.031653        -0.320916         0.476276
 C         1.424352        -0.185477         0.132124
 C         2.748484        -0.211777         0.846847
 C         3.450408        -1.070525        -0.257412
 C         2.299633        -0.436486        -1.219007
 O         2.006269        -1.193167        -2.307145
 C         2.483832         1.124127        -1.316567
 C         2.194439         1.004901         0.238378
 O         1.740313         2.109542         0.956606
 H        -0.088308        -0.750535         1.485891
 H        -0.541878         0.588538         0.780200
 H        -0.648639        -0.815711        -0.230858
 H         2.828520        -0.230565         1.986988
 H         4.451980        -0.697714        -0.467201
 H         3.566456        -2.176732        -0.233967
 H         1.663514        -0.561450        -2.960092
 H         3.412234         1.321105        -1.782510
 H         1.655334         1.755000        -1.694477
 H         2.579502         2.616758         1.031100
