19
Iteration:  1901charge 0 multiplicity 1
 C         0.019034        -0.745643         0.491417
 C         1.423276        -0.164877         0.101165
 C         2.852232        -0.028291         0.929029
 C         3.585989        -0.791456        -0.166146
 C         2.368836        -0.487368        -1.132676
 O         1.984749        -1.314859        -2.109957
 C         2.269141         1.068600        -1.409276
 C         2.062139         1.110267         0.088931
 O         1.761481         2.197057         0.800415
 H        -0.360875         0.042553         1.324610
 H        -0.757264        -0.570066        -0.323167
 H         0.035247        -1.782297         0.829279
 H         3.031989         0.279502         1.976161
 H         4.585963        -0.353072        -0.542087
 H         3.638752        -1.854147        -0.084856
 H         1.707011        -0.731653        -2.827519
 H         3.175409         1.628556        -1.792050
 H         1.312456         1.283357        -1.917672
 H         2.382740         2.964674         0.600135
