19
Iteration:  1645
 C         0.002034        -0.591400         0.650950
 C         1.462753        -0.279608         0.194198
 C         2.840824         0.042034         0.852098
 C         3.484738        -1.016044        -0.174975
 C         2.394108        -0.548051        -1.142333
 O         1.968324        -1.269425        -2.271039
 C         2.529523         1.148862        -1.353564
 C         2.059794         1.190913         0.037797
 O         1.646109         2.260236         0.714990
 H        -0.089419         0.053114         1.508578
 H        -0.774070         0.044340         0.119210
 H        -0.364687        -1.549774         0.917368
 H         2.955277         0.032377         1.923638
 H         4.488759        -0.736327        -0.392289
 H         3.264792        -2.035996         0.228076
 H         2.691401        -1.291363        -2.952047
 H         3.561771         1.495476        -1.484167
 H         1.810560         1.320516        -2.071641
 H         0.997777         2.024086         1.431846
