19
Iteration:  4567charge 0 multiplicity 1
 C        -0.094972        -0.352679         0.546474
 C         1.311292        -0.101397         0.122956
 C         2.677316        -0.088069         0.821233
 C         3.400915        -0.983301        -0.127733
 C         2.341531        -0.539623        -1.133929
 O         2.069325        -1.325033        -2.285845
 C         2.632367         1.013462        -1.341296
 C         2.152930         1.080405         0.062936
 O         1.885594         2.310064         0.839315
 H        -0.866973         0.165952         0.031054
 H        -0.358192        -1.340405         0.225527
 H        -0.299011        -0.352261         1.619936
 H         2.836034        -0.244687         1.926946
 H         4.456985        -0.761944        -0.314335
 H         3.174099        -2.131242         0.050969
 H         1.979286        -2.224228        -1.944762
 H         3.677240         1.286409        -1.437482
 H         1.802928         1.479488        -2.004868
 H         0.934271         2.592895         0.689973
