19
Iteration:  4388charge 0 multiplicity 1
 C        -0.037261        -0.389554         0.489436
 C         1.360037        -0.178935         0.091053
 C         2.688267        -0.104401         0.864578
 C         3.353398        -1.002392        -0.113750
 C         2.368450        -0.508528        -1.143818
 O         1.957537        -1.253347        -2.239426
 C         2.719953         1.020996        -1.324364
 C         2.196304         1.079117         0.156469
 O         1.816608         2.212172         0.803490
 H        -0.336381        -1.455588         0.562703
 H        -0.294685         0.155100         1.410709
 H        -0.675527         0.024759        -0.300878
 H         2.873845        -0.141114         2.023727
 H         4.485403        -0.869047        -0.162521
 H         3.169279        -2.071339         0.195332
 H         0.989356        -1.132836        -2.311358
 H         3.811854         1.397266        -1.588682
 H         2.197867         1.622785        -2.130740
 H         1.271027         2.696482         0.154754
