19
Iteration:  4914charge 0 multiplicity 1
 C        -0.020265        -0.581782         0.489766
 C         1.316411        -0.111067         0.010713
 C         2.656200         0.021106         0.898393
 C         3.295570        -1.035934        -0.091827
 C         2.299029        -0.546995        -1.131591
 O         2.037905        -1.450527        -2.221107
 C         2.658164         1.062369        -1.337575
 C         2.156724         1.184604         0.102907
 O         1.952773         2.403891         0.886456
 H        -0.983961        -0.022674         0.351816
 H        -0.297408        -1.417995        -0.187909
 H        -0.218135        -0.789575         1.593351
 H         2.427614        -0.083495         1.916277
 H         4.478451        -0.869245        -0.364824
 H         3.314384        -2.104328         0.162318
 H         1.326663        -1.196429        -2.870266
 H         3.771469         1.176969        -1.705768
 H         1.936963         1.568280        -1.987793
 H         1.722574         3.146032         0.277300
