19
Iteration:  4301
 C        -0.173434        -0.558052         0.399176
 C         1.314950        -0.195299         0.103204
 C         2.599360        -0.107370         0.953551
 C         3.436507        -0.993952        -0.171272
 C         2.337204        -0.455211        -1.133741
 O         1.949414        -1.304819        -2.274230
 C         2.574335         1.017733        -1.320878
 C         2.180995         1.098422         0.195896
 O         2.078264         2.422150         0.783698
 H        -0.410739        -0.399002         1.445412
 H        -0.737886         0.233019        -0.027119
 H        -0.507913        -1.521635         0.141953
 H         2.417804        -0.474084         2.048092
 H         4.503576        -0.760105        -0.237736
 H         3.388595        -2.027212         0.215394
 H         2.369219        -0.874540        -3.037497
 H         3.578064         1.175849        -1.711475
 H         1.675602         1.358121        -1.892763
 H         1.710257         2.311167         1.699956
