19
Iteration:  1470charge 0 multiplicity 1
 C         0.073390        -0.436413         0.562499
 C         1.463937        -0.205090         0.134232
 C         2.716056        -0.059807         0.915698
 C         3.476434        -0.986222        -0.056978
 C         2.345367        -0.501906        -1.149269
 O         2.021534        -1.273934        -2.279276
 C         2.450910         1.027613        -1.341596
 C         2.242003         1.118868         0.121773
 O         1.573236         2.211531         0.724553
 H        -0.187271        -0.046891         1.576869
 H        -0.552712        -0.119668        -0.327442
 H        -0.162851        -1.444393         0.671550
 H         2.796455        -0.073702         2.023296
 H         4.558285        -0.780639        -0.194760
 H         3.413534        -2.073570         0.180749
 H         1.927827        -0.832010        -3.180139
 H         3.324755         1.291587        -1.974282
 H         1.578051         1.254557        -1.924373
 H         2.225839         2.902692         0.900062
