19
Iteration:  4816
 C        -0.068284        -0.375151         0.452462
 C         1.373245        -0.194249         0.070504
 C         2.740640        -0.072927         0.884166
 C         3.363743        -0.978972        -0.087769
 C         2.339843        -0.472235        -1.134216
 O         1.963435        -1.349166        -2.150236
 C         2.666299         1.000893        -1.377089
 C         2.223376         1.089597         0.126760
 O         1.846544         2.220286         0.819787
 H        -0.732222        -0.473179        -0.425355
 H        -0.167765        -1.309681         0.971000
 H        -0.625522         0.439776         0.867411
 H         2.983573         0.123129         1.935715
 H         4.401031        -0.602441        -0.351041
 H         3.219234        -2.041121         0.198373
 H         1.436673        -0.873830        -2.818435
 H         3.685965         1.498098        -1.627986
 H         1.869068         1.439903        -1.979489
 H         0.975780         2.456900         0.418706
