19
Iteration:   308charge 0 multiplicity 1
 C        -0.245084        -0.491256         0.328374
 C         1.222554        -0.161595         0.057791
 C         2.435354        -0.154888         1.021570
 C         3.319383        -0.995591         0.036856
 C         2.327598        -0.592271        -1.080600
 O         2.254490        -1.162843        -2.267500
 C         2.830404         0.923047        -1.208659
 C         2.178566         1.083186         0.124532
 O         1.865849         2.345118         0.666543
 H        -0.396357        -0.065003         1.352126
 H        -1.021147        -0.157319        -0.263531
 H        -0.459035        -1.637916         0.345472
 H         2.598125        -0.098129         2.097290
 H         4.355215        -0.596557        -0.115926
 H         3.372471        -2.055306         0.296124
 H         1.812821        -0.500873        -2.915310
 H         3.863127         1.025797        -1.468624
 H         2.343230         1.513872        -2.041851
 H         2.444130         2.893387         0.085412
