19
Iteration:  2371charge 0 multiplicity 1
 C         0.156421        -0.751726         0.676619
 C         1.432591        -0.212556         0.165391
 C         2.725602        -0.154428         0.914975
 C         3.470574        -0.976426        -0.207296
 C         2.318318        -0.424632        -1.276868
 O         2.058243        -1.348794        -2.295554
 C         2.515203         1.141331        -1.394549
 C         2.092656         1.203936         0.203511
 O         1.590396         2.445182         0.709975
 H        -0.282724         0.080139         1.321659
 H        -0.718689        -0.894603         0.062439
 H         0.371178        -1.711003         1.146538
 H         2.837994        -0.250663         2.019451
 H         4.594781        -0.897606        -0.318852
 H         3.349128        -2.069152        -0.134830
 H         1.210611        -1.108267        -2.761957
 H         3.573781         1.514066        -1.481756
 H         1.853979         1.835594        -1.965416
 H         1.952849         2.626409         1.600189
