19
Iteration:  3299
 C         0.188421        -0.748581         0.632039
 C         1.527266        -0.207292         0.139949
 C         2.808588        -0.166026         0.851119
 C         3.558203        -0.930496        -0.447009
 C         2.299315        -0.434488        -1.205994
 O         1.796340        -0.973578        -2.374039
 C         2.507155         1.124301        -1.247123
 C         2.143925         1.091168         0.231321
 O         1.644047         2.216384         0.885196
 H         0.133424        -1.451350         1.449948
 H        -0.515959         0.091737         0.967531
 H        -0.325038        -1.208048        -0.253386
 H         2.684196        -0.376109         1.912282
 H         4.437203        -0.479684        -0.930353
 H         3.578223        -2.022811        -0.199671
 H         1.491522        -1.840901        -2.121712
 H         3.486754         1.622232        -1.327911
 H         1.805616         1.657547        -1.817196
 H         1.441493         1.962965         1.791446
