19
Iteration:  4823charge 0 multiplicity 1
 C        -0.051189        -0.396344         0.414567
 C         1.389789        -0.166323         0.133488
 C         2.709827        -0.091027         0.828351
 C         3.356487        -1.024388        -0.072895
 C         2.305441        -0.513259        -1.155497
 O         1.990958        -1.331949        -2.138946
 C         2.611093         1.033913        -1.306483
 C         2.230425         1.120248         0.124883
 O         1.853730         2.269210         0.781472
 H        -0.516342        -0.548451        -0.561394
 H        -0.365214        -1.360777         0.917891
 H        -0.430782         0.402517         1.180247
 H         2.973478         0.012430         1.912913
 H         4.481764        -0.864119        -0.391053
 H         3.433434        -2.054713         0.150878
 H         1.557817        -0.727221        -2.748509
 H         3.630467         1.228174        -1.730360
 H         1.834109         1.512995        -1.931746
 H         0.932694         2.413608         0.442512
