19
Iteration:  3701
 C        -0.032221        -0.532258         0.532154
 C         1.401231        -0.250950         0.180006
 C         2.807715        -0.210550         0.807328
 C         3.442121        -0.946765        -0.357751
 C         2.200994        -0.396667        -1.194982
 O         1.965945        -1.103621        -2.393875
 C         2.434102         1.119955        -1.329648
 C         2.157164         1.076483         0.115040
 O         1.853557         2.139402         1.170474
 H        -0.203618         0.196399         1.342308
 H        -0.808419        -0.511907        -0.260262
 H        -0.142010        -1.446411         1.153183
 H         3.020992        -0.238848         1.848763
 H         4.621701        -0.598102        -0.675696
 H         3.337959        -2.043693        -0.177766
 H         2.730300        -1.629499        -2.717475
 H         3.352283         1.512868        -1.675438
 H         1.568037         1.438056        -1.943698
 H         2.131389         3.005911         0.772542
