19
Iteration:  4481
 C        -0.054907        -0.620306         0.332692
 C         1.302935         0.009118         0.109643
 C         2.642779        -0.070230         0.942390
 C         3.358391        -0.971506        -0.087696
 C         2.300317        -0.514517        -1.099391
 O         1.905027        -1.379725        -2.204668
 C         2.645022         0.955007        -1.278097
 C         2.144737         1.152267         0.127901
 O         2.057836         2.354738         0.815612
 H        -0.376025        -1.174216        -0.535583
 H         0.002516        -1.181039         1.265772
 H        -0.716754         0.236285         0.551099
 H         2.914992         0.010757         2.034813
 H         4.374920        -0.652924        -0.343242
 H         3.357576        -2.088143        -0.075234
 H         1.874188        -0.803378        -2.994709
 H         3.637665         1.222492        -1.633850
 H         1.974942         1.517142        -2.073706
 H         1.144912         2.602135         0.581810
