19
Iteration:  1413charge 0 multiplicity 1
 C        -0.022543        -0.452264         0.521067
 C         1.328609        -0.139436         0.073459
 C         2.686902        -0.034650         0.934757
 C         3.422735        -0.796223        -0.211068
 C         2.330313        -0.521318        -1.228634
 O         2.158266        -1.480736        -2.239627
 C         2.523067         1.106782        -1.356819
 C         2.125695         1.124097         0.136465
 O         1.754115         2.259335         0.836729
 H        -0.303492         0.130258         1.384768
 H        -0.820248        -0.092148        -0.165649
 H        -0.097089        -1.517163         0.655679
 H         2.952726        -0.196124         1.964442
 H         4.371407        -0.398820        -0.489100
 H         3.442598        -1.955655        -0.108087
 H         1.362589        -2.003002        -2.103051
 H         3.551301         1.191115        -1.694354
 H         1.792663         1.498672        -2.067947
 H         2.076420         2.013002         1.743815
