19
Iteration:  3014charge 0 multiplicity 1
 C         0.221162        -0.844023         0.538667
 C         1.500192        -0.232038         0.180547
 C         2.850224        -0.102396         0.847992
 C         3.585451        -0.946783        -0.160537
 C         2.342866        -0.446251        -1.246713
 O         1.669761        -0.969061        -2.282979
 C         2.617168         1.135718        -1.372671
 C         2.075714         1.123195         0.089943
 O         1.565220         2.177652         0.909298
 H        -0.524947        -0.094922         0.779659
 H        -0.141696        -1.403160        -0.318504
 H         0.327855        -1.284179         1.558717
 H         2.896516         0.225239         1.892054
 H         4.513144        -0.398008        -0.603923
 H         3.215992        -2.041365        -0.039156
 H         1.524025        -1.906173        -2.066779
 H         3.676053         1.238537        -1.568406
 H         1.985076         1.645436        -2.071232
 H         2.100435         3.007801         0.998974
