19
Iteration:  3438charge 0 multiplicity 1
 C         0.145778        -0.814194         0.490196
 C         1.474162        -0.190794         0.168772
 C         2.874351        -0.166569         0.842758
 C         3.501003        -1.001861        -0.268763
 C         2.319581        -0.446853        -1.168856
 O         1.780477        -0.991425        -2.522699
 C         2.399847         1.153078        -1.231330
 C         2.123624         1.118473         0.250697
 O         1.835193         2.200101         1.039443
 H        -0.540357        -0.069937         0.996558
 H        -0.420230        -1.161530        -0.435097
 H         0.480299        -1.706585         1.035403
 H         2.938039        -0.361072         1.943207
 H         4.382482        -0.512517        -0.627444
 H         3.516941        -2.049975        -0.016099
 H         0.827241        -1.126894        -2.261289
 H         3.294343         1.794162        -1.645010
 H         1.400204         1.553386        -1.731264
 H         1.874107         3.059490         0.584122
