19
Iteration:  4294charge 0 multiplicity 1
 C        -0.143844        -0.549712         0.375707
 C         1.316566        -0.217855         0.046030
 C         2.631582        -0.119003         0.984157
 C         3.414239        -0.964797        -0.107027
 C         2.311795        -0.581282        -1.182198
 O         1.917324        -1.294583        -2.267882
 C         2.561099         1.041556        -1.300851
 C         2.213793         1.117596         0.221497
 O         2.067127         2.438571         0.788956
 H        -0.469005        -0.344656         1.425698
 H        -0.942465        -0.016144        -0.298351
 H        -0.342157        -1.697427         0.246545
 H         2.577652        -0.174846         2.077950
 H         4.487788        -0.820959        -0.314408
 H         3.272163        -2.106057        -0.027117
 H         2.340913        -0.843576        -3.003623
 H         3.568953         1.434461        -1.613445
 H         1.847424         1.633772        -1.927635
 H         1.910674         2.484411         1.758771
