19
Iteration:  1907charge 0 multiplicity 1
 C         0.080751        -0.732050         0.477265
 C         1.394641        -0.151957         0.188068
 C         2.845764        -0.060228         0.963306
 C         3.566909        -0.814901        -0.201496
 C         2.355763        -0.443988        -1.062170
 O         1.979698        -1.339128        -2.146879
 C         2.305468         1.067988        -1.432664
 C         2.079398         1.164719         0.059790
 O         1.742562         2.204938         0.781058
 H        -0.337358        -0.133563         1.198692
 H        -0.648949        -0.665278        -0.317330
 H         0.028013        -1.818584         0.668463
 H         3.137252         0.180066         1.976162
 H         4.491097        -0.360096        -0.463653
 H         3.564475        -1.939291        -0.108780
 H         1.600519        -0.856064        -2.859012
 H         3.015758         1.799539        -1.824359
 H         1.357053         1.184068        -1.983263
 H         2.351507         2.962265         0.780889
