19
Iteration:   146charge 0 multiplicity 1
 C        -0.081958        -0.263460         0.480233
 C         1.256517        -0.082180        -0.033197
 C         2.493376        -0.093634         0.851927
 C         3.244916        -1.096698         0.032942
 C         2.367654        -0.540982        -1.134521
 O         2.317803        -1.237019        -2.326937
 C         2.862922         0.975297        -1.214275
 C         2.070045         1.103802         0.039860
 O         1.642975         2.195385         0.780147
 H        -0.144602         0.344883         1.446427
 H        -0.913223        -0.181428        -0.200268
 H        -0.168845        -1.236640         0.773846
 H         2.554696         0.134274         1.931822
 H         4.365360        -1.078457        -0.168040
 H         2.908045        -2.032565         0.341660
 H         2.291612        -2.158644        -2.102085
 H         3.955237         1.063290        -1.152319
 H         2.501986         1.499329        -2.148293
 H         2.370847         2.856798         0.849782
