19
Iteration:  4774
 C        -0.092437        -0.393995         0.449510
 C         1.319888        -0.130684         0.030098
 C         2.701530        -0.100771         0.934274
 C         3.389723        -0.947245        -0.178475
 C         2.274464        -0.571303        -1.159135
 O         2.095015        -1.403582        -2.212187
 C         2.646321         1.062192        -1.321210
 C         2.183415         1.105688         0.092941
 O         1.867269         2.296783         0.924144
 H        -0.888596        -0.950117        -0.206921
 H        -0.036396        -1.039920         1.374477
 H        -0.465639         0.667434         0.685777
 H         3.003836        -0.077402         2.002198
 H         4.416044        -0.842671        -0.504377
 H         3.150988        -2.056191         0.046655
 H         1.156186        -1.358483        -2.536735
 H         3.642854         1.416563        -1.668429
 H         1.808612         1.345138        -1.951078
 H         1.413721         2.881847         0.308740
