19
Iteration:  1446charge 0 multiplicity 1
 C        -0.040190        -0.348802         0.560507
 C         1.404773        -0.269997         0.116618
 C         2.776019        -0.111849         0.925120
 C         3.517679        -0.922092        -0.196302
 C         2.417105        -0.545260        -1.115792
 O         2.130736        -1.303323        -2.267374
 C         2.442112         1.028308        -1.307789
 C         2.064679         1.056238         0.129590
 O         1.628310         2.293805         0.701197
 H        -0.074841         0.093011         1.567544
 H        -0.695010         0.105068        -0.238963
 H        -0.474758        -1.384627         0.772585
 H         3.104754        -0.109362         1.965672
 H         4.530952        -0.615333        -0.346747
 H         3.590819        -2.078627        -0.014413
 H         1.258177        -1.139782        -2.566766
 H         3.444156         1.369353        -1.697165
 H         1.640057         1.300354        -2.050879
 H         2.205435         2.538487         1.429097
