19
Iteration:  4444
 C        -0.118586        -0.618489         0.320518
 C         1.316272        -0.116144         0.073855
 C         2.678379        -0.053447         0.939050
 C         3.323073        -0.931329        -0.101069
 C         2.296761        -0.453180        -1.160117
 O         2.051079        -1.369164        -2.175537
 C         2.558861         0.980274        -1.377090
 C         2.171341         1.163503         0.189970
 O         2.118610         2.328819         0.851134
 H        -0.644142        -1.350503        -0.303641
 H        -0.216387        -0.968938         1.326458
 H        -0.824277         0.233975         0.221699
 H         2.770382         0.072096         1.988185
 H         4.434437        -0.923464        -0.102365
 H         2.912911        -2.026497        -0.207521
 H         1.105967        -1.413993        -2.321813
 H         3.589866         1.427515        -1.601885
 H         1.616730         1.453974        -1.889287
 H         1.509022         3.055100         0.575363
