19
Iteration:   137
 C        -0.117661        -0.317475         0.554824
 C         1.276722        -0.110128        -0.051364
 C         2.457859        -0.095180         0.885391
 C         3.260739        -1.073204         0.004935
 C         2.381126        -0.514171        -1.136706
 O         2.237675        -1.229080        -2.299161
 C         2.939133         0.985449        -1.240388
 C         2.136813         1.131857        -0.013878
 O         1.648981         2.155546         0.737694
 H        -0.447222         0.336756         1.454539
 H        -0.906555         0.076355        -0.209917
 H        -0.340125        -1.374054         0.762399
 H         2.247190         0.014009         1.941190
 H         4.388338        -0.857901         0.044693
 H         3.067609        -2.128922         0.270778
 H         2.499214        -2.107795        -2.093922
 H         4.004015         1.144241        -0.901874
 H         2.685212         1.643756        -2.101366
 H         2.255072         2.911129         0.879198
