19
Iteration:  2445charge 0 multiplicity 1
 C         0.075706        -0.729029         0.388920
 C         1.369200        -0.154661         0.068399
 C         2.745938        -0.094139         0.871063
 C         3.577602        -0.798535        -0.206304
 C         2.274257        -0.482455        -1.107829
 O         2.037880        -1.402713        -2.149737
 C         2.394670         1.124302        -1.216396
 C         2.065052         1.128362         0.214819
 O         1.762849         2.401252         0.695451
 H        -0.022623        -1.074690         1.441913
 H        -0.884051        -0.168061         0.305188
 H        -0.029856        -1.600497        -0.335662
 H         2.941032        -0.183229         2.011359
 H         4.558425        -0.406075        -0.645912
 H         3.639597        -1.875531        -0.062251
 H         1.074560        -1.632053        -2.048164
 H         3.373190         1.443353        -1.749863
 H         1.609091         1.508654        -1.866947
 H         2.559062         2.660193         1.177269
