19
Iteration:  3986charge 0 multiplicity 1
 C        -0.094836        -0.484862         0.476345
 C         1.312227        -0.170363         0.172870
 C         2.756994        -0.201300         0.906821
 C         3.404610        -1.033049        -0.288872
 C         2.263227        -0.440265        -1.219077
 O         2.057426        -1.206046        -2.434911
 C         2.493458         1.065804        -1.261366
 C         2.116078         1.109573         0.173215
 O         1.933565         2.304838         0.997429
 H        -0.211994        -1.392512         1.014568
 H        -0.560928         0.443645         0.729822
 H        -0.495059        -0.778590        -0.511230
 H         2.931686        -0.216795         1.983835
 H         4.541637        -0.613734        -0.460027
 H         3.326347        -2.116210        -0.007800
 H         1.281870        -1.787332        -2.348304
 H         3.514940         1.384323        -1.583218
 H         1.748993         1.692989        -1.812457
 H         2.707845         2.232172         1.583409
