19
Iteration:  2886charge 0 multiplicity 1
 C         0.106898        -0.751655         0.679166
 C         1.395098        -0.191314         0.149112
 C         2.817401        -0.107577         0.819285
 C         3.476836        -0.905268        -0.371864
 C         2.281670        -0.502648        -1.138646
 O         1.964239        -1.130670        -2.332925
 C         2.454586         1.166143        -1.266194
 C         2.150297         1.120827         0.150173
 O         1.624952         2.278294         0.794374
 H         0.197317        -1.094609         1.786652
 H        -0.806600        -0.130857         0.616727
 H        -0.176351        -1.575836        -0.062800
 H         3.087775        -0.302059         1.856428
 H         4.472969        -0.730047        -0.621172
 H         3.742977        -1.864192        -0.060512
 H         2.121654        -2.110359        -2.245246
 H         3.451943         1.705315        -1.498756
 H         1.558588         1.726288        -1.581979
 H         2.376816         2.652114         1.275510
