19
Iteration:  1895charge 0 multiplicity 1
 C        -0.031871        -0.699076         0.512270
 C         1.437994        -0.250301         0.075620
 C         2.815808         0.013050         0.828371
 C         3.606504        -0.751352        -0.156290
 C         2.381457        -0.486545        -1.164748
 O         1.986406        -1.319642        -2.104453
 C         2.282214         1.063315        -1.372990
 C         2.068657         1.063304         0.112546
 O         1.756675         2.237327         0.843300
 H        -0.307749        -0.134101         1.336727
 H        -0.701138        -0.577967        -0.312987
 H         0.057440        -1.701528         1.008033
 H         2.916095         0.253814         1.891895
 H         4.568773        -0.460249        -0.533431
 H         3.763513        -1.867645         0.040453
 H         1.800379        -0.696915        -2.887550
 H         3.213747         1.370874        -1.850854
 H         1.341976         1.433237        -1.847871
 H         2.385325         2.829893         0.436624
