19
Iteration:  2458charge 0 multiplicity 1
 C        -0.004846        -0.749332         0.391431
 C         1.390068        -0.150769         0.298164
 C         2.771444        -0.142906         0.858593
 C         3.435193        -0.817923        -0.287220
 C         2.277221        -0.416216        -1.120042
 O         2.140107        -1.415469        -2.104159
 C         2.404416         1.078402        -1.363178
 C         2.084680         1.189234         0.141641
 O         1.761247         2.384805         0.759712
 H        -0.203511        -1.277076         1.405004
 H        -0.671755         0.072993         0.112762
 H        -0.068769        -1.578958        -0.349271
 H         3.064664        -0.102696         1.902739
 H         4.442933        -0.328404        -0.486928
 H         3.611630        -1.902775        -0.201393
 H         1.266928        -1.720844        -2.355056
 H         3.418323         1.594418        -1.588188
 H         1.477970         1.539413        -1.793483
 H         2.601664         2.879528         0.948781
