19
Iteration:  1155charge 0 multiplicity 1
 C        -0.057732        -0.612579         0.361821
 C         1.340558        -0.109051         0.013163
 C         2.520813        -0.134350         0.904814
 C         3.374979        -0.974861        -0.017540
 C         2.391135        -0.495678        -1.166585
 O         1.986184        -1.252622        -2.273992
 C         2.691650         1.038807        -1.340847
 C         2.201226         1.140184         0.126983
 O         1.886786         2.371203         0.923314
 H        -0.378099        -0.063655         1.254856
 H        -0.778635        -0.522303        -0.402612
 H         0.220994        -1.702108         0.618658
 H         2.362440        -0.185940         1.992558
 H         4.503544        -0.781311        -0.210378
 H         3.222598        -2.016371         0.063677
 H         1.999482        -2.159820        -2.045289
 H         3.738005         1.410606        -1.465514
 H         1.937021         1.584827        -1.969701
 H         1.318632         2.887263         0.305419
