19
Iteration:  2421charge 0 multiplicity 1
 C         0.089575        -0.840755         0.521959
 C         1.459230        -0.275977         0.136940
 C         2.669419        -0.007827         0.850081
 C         3.525862        -0.806340        -0.069064
 C         2.384673        -0.476704        -1.166650
 O         1.884081        -1.276706        -2.211581
 C         2.596800         1.078901        -1.404299
 C         2.091757         1.221645         0.046769
 O         1.698811         2.354248         0.766751
 H        -0.151699        -0.813699         1.541576
 H        -0.689126        -0.121075         0.156165
 H        -0.215544        -1.821528         0.015970
 H         2.938664        -0.029896         1.953941
 H         4.563765        -0.424529        -0.184984
 H         3.537353        -1.884494         0.144727
 H         0.971032        -1.297913        -2.037402
 H         3.545158         1.475030        -1.846785
 H         1.834323         1.277045        -2.137407
 H         2.190042         2.261460         1.626130
