19
Iteration:  3597charge 0 multiplicity 1
 C         0.150800        -0.803818         0.540637
 C         1.396351        -0.187331         0.092871
 C         2.796633        -0.144282         0.824875
 C         3.419106        -0.958066        -0.313846
 C         2.376132        -0.378775        -1.210875
 O         1.737107        -1.002077        -2.294137
 C         2.539229         1.102752        -1.306297
 C         2.140928         1.144400         0.151485
 O         1.796330         2.279316         0.992263
 H        -0.048005        -1.162401         1.552907
 H        -0.593545        -0.035695         0.303891
 H        -0.047059        -1.565587        -0.246297
 H         3.021613        -0.362563         1.846639
 H         4.537388        -0.873510        -0.654308
 H         3.058888        -2.079838        -0.220357
 H         2.153359        -1.913536        -2.407738
 H         3.589581         1.471914        -1.570663
 H         1.689663         1.510383        -1.870256
 H         1.924911         1.868183         1.860079
