19
Iteration:   857
 C        -0.053513        -0.583732         0.372741
 C         1.299364        -0.138385         0.139217
 C         2.569109        -0.136129         0.931725
 C         3.437642        -0.915539        -0.033745
 C         2.318953        -0.471372        -1.149194
 O         2.019828        -1.209753        -2.335592
 C         2.682773         1.026670        -1.271728
 C         2.169177         1.124285         0.195213
 O         1.847757         2.266247         0.776426
 H        -0.654604        -0.298207         1.286535
 H        -0.501688        -0.284441        -0.558342
 H        -0.042750        -1.741335         0.255914
 H         2.524621        -0.138827         2.040013
 H         4.529788        -0.567556        -0.089007
 H         3.266837        -1.940968         0.203198
 H         1.911953        -2.151884        -1.970696
 H         3.708933         1.332615        -1.539992
 H         2.004271         1.594987        -1.888792
 H         1.950273         2.996909         0.108594
