19
Iteration:  2290charge 0 multiplicity 1
 C         0.020180        -0.587867         0.527070
 C         1.508145        -0.261219         0.081755
 C         2.841048        -0.098945         0.835344
 C         3.489628        -0.859460        -0.295168
 C         2.256534        -0.407756        -1.126596
 O         2.123383        -1.368747        -2.146980
 C         2.340971         1.096977        -1.377938
 C         2.173778         1.175226         0.176342
 O         1.627003         2.217391         0.879879
 H        -0.444883         0.270301         0.881120
 H        -0.389004        -1.071628        -0.368496
 H        -0.011240        -1.324413         1.367147
 H         3.010177         0.069033         1.871443
 H         4.496050        -0.662014        -0.652728
 H         3.240544        -1.933460        -0.284661
 H         1.401297        -1.026160        -2.676078
 H         3.153561         1.706661        -1.905076
 H         1.366985         1.348899        -1.850285
 H         2.270468         2.922140         1.159544
