19
Iteration:  1543charge 0 multiplicity 1
 C         0.086677        -0.817528         0.392854
 C         1.360289        -0.097225         0.147823
 C         2.618196        -0.034365         0.890667
 C         3.458270        -0.863898        -0.075668
 C         2.329290        -0.476257        -1.133526
 O         1.970574        -1.212017        -2.211908
 C         2.452075         0.928293        -1.389788
 C         2.226104         1.189155         0.088515
 O         1.821358         2.393963         0.761101
 H        -0.354702        -0.469711         1.297584
 H        -0.600104        -0.694311        -0.434696
 H         0.133015        -1.919443         0.725172
 H         2.675951        -0.126475         1.994475
 H         4.431640        -0.560793        -0.428381
 H         3.531612        -2.000006         0.043243
 H         1.408371        -1.907813        -1.807114
 H         3.372210         1.402461        -1.711372
 H         1.626009         1.468506        -1.917175
 H         2.394748         2.542517         1.503784
