19
Iteration:   734
 C        -0.053403        -0.487439         0.436150
 C         1.297070        -0.071056        -0.004514
 C         2.668291        -0.065788         0.925937
 C         3.312056        -1.061390         0.019625
 C         2.357514        -0.491662        -1.150435
 O         2.123246        -1.156628        -2.363509
 C         2.771282         1.014859        -1.300939
 C         2.185509         1.112372         0.167967
 O         1.690842         2.211757         0.848694
 H        -0.425369        -0.037138         1.359931
 H        -0.913293        -0.478734        -0.422941
 H         0.092517        -1.580487         0.623552
 H         2.516796        -0.242024         1.980042
 H         4.438968        -0.919742        -0.175123
 H         2.983761        -2.080730         0.331784
 H         1.683251        -2.063565        -2.176831
 H         3.798104         1.211080        -1.592833
 H         2.050859         1.466218        -2.069648
 H         1.953091         3.022613         0.363171
