19
Iteration:  3951
 C        -0.043306        -0.324407         0.480026
 C         1.425983        -0.185901         0.126100
 C         2.747922        -0.204078         0.850766
 C         3.448539        -1.073203        -0.260682
 C         2.292358        -0.436840        -1.218577
 O         2.015346        -1.191125        -2.306207
 C         2.480547         1.122762        -1.312969
 C         2.202679         1.003597         0.233707
 O         1.744128         2.113943         0.958116
 H        -0.097565        -0.782467         1.471107
 H        -0.532451         0.604303         0.760366
 H        -0.649704        -0.821765        -0.237852
 H         2.836410        -0.252190         1.995608
 H         4.496674        -0.661961        -0.473627
 H         3.547598        -2.203911        -0.211785
 H         1.622454        -0.554655        -2.935172
 H         3.411571         1.321215        -1.799306
 H         1.622968         1.736958        -1.694199
 H         2.592172         2.583761         1.028132
