19
Iteration:  4198charge 0 multiplicity 1
 C        -0.151150        -0.413480         0.446211
 C         1.333622        -0.164588         0.186185
 C         2.669700        -0.240525         0.863202
 C         3.430122        -1.064434        -0.193950
 C         2.394377        -0.473356        -1.148531
 O         1.859949        -1.153369        -2.264282
 C         2.636720         1.015539        -1.245835
 C         2.317548         1.071118         0.166713
 O         1.785795         2.297524         0.830016
 H        -0.842394         0.180800        -0.117706
 H        -0.309075        -1.419476         0.064859
 H        -0.534983        -0.494949         1.455495
 H         2.771200        -0.367951         1.923997
 H         4.494792        -0.944091        -0.529250
 H         3.284226        -2.103967        -0.026749
 H         2.589942        -1.277525        -2.891294
 H         3.693267         1.402623        -1.487841
 H         2.064293         1.622704        -1.893335
 H         2.535935         2.903219         0.680200
