19
Iteration:  2394charge 0 multiplicity 1
 C         0.175424        -0.785288         0.592836
 C         1.381795        -0.130116         0.107647
 C         2.795177         0.122528         0.792159
 C         3.397798        -0.976100        -0.213433
 C         2.324689        -0.503165        -1.127789
 O         2.008647        -1.230532        -2.238125
 C         2.606271         0.995420        -1.257213
 C         2.090041         1.234811         0.090680
 O         1.601786         2.291935         0.726946
 H        -0.172416        -0.268018         1.556392
 H        -0.741527        -0.556881         0.027088
 H         0.364709        -1.849151         0.562708
 H         2.935430         0.037840         1.840705
 H         4.458075        -0.870946        -0.538326
 H         3.383710        -2.032262         0.099119
 H         1.075832        -1.264764        -2.305801
 H         3.616347         1.403628        -1.418352
 H         1.830267         1.306465        -2.027820
 H         1.885979         2.194350         1.665391
