19
Iteration:  4070
 C        -0.058647        -0.601266         0.350609
 C         1.426448        -0.190468         0.155420
 C         2.734541        -0.205868         0.923782
 C         3.320186        -1.104533        -0.217709
 C         2.310565        -0.401351        -1.111786
 O         1.853926        -1.123768        -2.224662
 C         2.718087         1.052451        -1.323276
 C         2.199337         1.142493         0.171444
 O         1.821346         2.310090         0.862027
 H        -0.345215        -1.525453        -0.286675
 H        -0.080049        -1.087247         1.392470
 H        -0.863331         0.158438         0.274425
 H         2.811975        -0.400802         2.032170
 H         4.442883        -1.026676        -0.412686
 H         3.110481        -2.112882         0.191420
 H         1.641840        -0.443250        -2.909185
 H         3.783654         1.151276        -1.443611
 H         2.050171         1.565581        -2.067759
 H         2.492779         3.015612         0.766403
