19
Iteration:  1928charge 0 multiplicity 1
 C         0.160014        -0.764192         0.481675
 C         1.436254        -0.155907         0.196296
 C         2.891294        -0.000488         0.843655
 C         3.498714        -0.873694        -0.273994
 C         2.296224        -0.513547        -1.186513
 O         2.007650        -1.392431        -2.142388
 C         2.365754         1.008077        -1.365907
 C         2.101510         1.211931         0.210618
 O         1.617357         2.408347         0.815740
 H        -0.460715        -0.337499         1.227948
 H        -0.487811        -0.533054        -0.389785
 H         0.215017        -1.916412         0.400753
 H         3.006596         0.002672         1.913272
 H         4.488040        -0.617446        -0.623691
 H         3.308663        -1.952154         0.068313
 H         1.270166        -1.047741        -2.695590
 H         3.375996         1.251997        -1.757699
 H         1.575267         1.607158        -1.912261
 H         2.369174         2.911841         1.242762
