19
Iteration:  4783charge 0 multiplicity 1
 C        -0.049186        -0.342908         0.473194
 C         1.345368        -0.152571        -0.004502
 C         2.677495        -0.099928         0.794755
 C         3.373938        -0.970848        -0.156943
 C         2.321834        -0.578863        -1.128149
 O         2.024057        -1.407179        -2.194276
 C         2.652357         1.004615        -1.340067
 C         2.172692         1.084506         0.095837
 O         1.815779         2.318367         0.984508
 H        -0.436935        -0.851758        -0.451415
 H        -0.142689        -0.930212         1.394284
 H        -0.474378         0.627980         0.857800
 H         2.965364        -0.010998         1.880463
 H         4.500838        -0.609164        -0.272042
 H         3.535875        -1.998971         0.182433
 H         1.221782        -1.392820        -2.763122
 H         3.759021         1.448564        -1.518123
 H         1.989933         1.372208        -2.118638
 H         1.373317         2.997698         0.473132
