19
Iteration:  2822
 C         0.108829        -0.840949         0.476167
 C         1.422957        -0.154448         0.129179
 C         2.803396        -0.027045         0.840344
 C         3.553581        -0.806993        -0.314479
 C         2.326801        -0.420576        -1.183081
 O         1.815493        -1.161268        -2.208445
 C         2.562886         1.078316        -1.309826
 C         2.119317         1.110523         0.188049
 O         1.679924         2.218317         0.909168
 H         0.248381        -1.695739         1.198820
 H        -0.676569        -0.145319         0.797667
 H        -0.356106        -1.325620        -0.408198
 H         3.129575        -0.039596         1.857474
 H         4.598055        -0.540142        -0.509335
 H         3.384265        -1.910915        -0.062851
 H         1.290038        -1.909162        -1.902497
 H         3.609984         1.307188        -1.574557
 H         1.824424         1.577396        -1.955893
 H         1.901802         3.080807         0.545972
