19
Iteration:   332
 C        -0.198931        -0.335986         0.445511
 C         1.227377        -0.142587         0.021693
 C         2.437753        -0.179280         0.909645
 C         3.294385        -1.127212         0.034049
 C         2.484183        -0.544656        -1.219830
 O         2.394795        -1.331788        -2.314321
 C         2.685964         1.053252        -1.167083
 C         2.054755         1.128245         0.133671
 O         1.900906         2.348845         0.785586
 H        -0.523940         0.266821         1.357396
 H        -0.897794        -0.131708        -0.376664
 H        -0.430533        -1.415729         0.550329
 H         2.409393        -0.266828         1.998429
 H         4.410308        -0.930026         0.099821
 H         3.094642        -2.138327         0.156250
 H         1.594125        -1.174017        -2.791798
 H         3.694670         1.354729        -1.347241
 H         2.100651         1.561551        -1.981074
 H         1.669936         2.944556         0.015552
