19
Iteration:  1089
 C        -0.073295        -0.595102         0.366260
 C         1.335356        -0.207304         0.044890
 C         2.539331        -0.119027         0.958910
 C         3.327423        -1.019682        -0.040897
 C         2.356787        -0.508055        -1.142483
 O         2.159879        -1.203803        -2.336855
 C         2.565861         1.079535        -1.239976
 C         2.177723         1.135566         0.215125
 O         1.918174         2.421464         0.679528
 H        -0.387108        -0.188969         1.346101
 H        -0.803434        -0.353834        -0.324068
 H        -0.035750        -1.725596         0.592602
 H         2.454285        -0.310287         2.053900
 H         4.463265        -0.856781        -0.128576
 H         3.003147        -1.994125         0.053924
 H         1.803774        -2.130154        -2.131726
 H         3.522830         1.558844        -1.635097
 H         1.712211         1.507405        -1.806631
 H         1.939112         2.403187         1.652062
