19
Iteration:  3249charge 0 multiplicity 1
 C         0.106016        -0.861840         0.546736
 C         1.430660        -0.208280         0.150201
 C         2.769857        -0.163919         0.760520
 C         3.400084        -0.816990        -0.380264
 C         2.176770        -0.442356        -1.167903
 O         2.077821        -1.181444        -2.383094
 C         2.375608         1.170109        -1.320703
 C         2.035825         1.146394         0.223408
 O         1.904655         2.341696         1.040003
 H         0.172519        -1.974106         0.555223
 H        -0.240346        -0.766983         1.560493
 H        -0.633166        -0.607132        -0.191087
 H         3.020388        -0.357154         1.829056
 H         4.360372        -0.332364        -0.590286
 H         3.306330        -1.864292        -0.135796
 H         1.097676        -1.352435        -2.361530
 H         3.290576         1.649174        -1.693587
 H         1.431642         1.523394        -1.839225
 H         2.601363         2.221419         1.719883
