19
Iteration:  3137charge 0 multiplicity 1
 C         0.115169        -0.648884         0.611544
 C         1.503597        -0.258674         0.122847
 C         2.894000        -0.148699         0.794395
 C         3.490327        -0.925291        -0.412263
 C         2.330915        -0.384515        -1.202923
 O         1.852286        -1.172755        -2.306447
 C         2.415808         1.199907        -1.277052
 C         2.214077         1.139241         0.233510
 O         1.525276         2.155379         0.962060
 H        -0.640945        -0.450838        -0.163380
 H         0.054716        -1.677624         0.857553
 H        -0.047427        -0.112370         1.552446
 H         3.133103        -0.377034         1.820597
 H         4.506169        -0.520074        -0.729043
 H         3.333144        -1.949741        -0.005464
 H         2.532946        -1.796227        -2.623534
 H         3.313454         1.561640        -1.717954
 H         1.651100         1.612059        -1.837038
 H         2.200371         2.882283         1.027689
