19
Iteration:  3233
 C         0.087612        -0.893453         0.500586
 C         1.372728        -0.203758         0.208642
 C         2.751821        -0.137003         0.836703
 C         3.466937        -0.894918        -0.410729
 C         2.258637        -0.329366        -1.265515
 O         2.068731        -1.258333        -2.329177
 C         2.254607         1.170037        -1.233493
 C         2.152893         1.140903         0.281939
 O         1.869769         2.333077         1.007128
 H         0.109186        -1.921242         0.084838
 H        -0.162085        -0.838046         1.618194
 H        -0.833917        -0.320942         0.130799
 H         3.037672        -0.147505         1.867831
 H         4.420186        -0.537880        -0.863426
 H         3.264235        -2.009628        -0.434001
 H         1.258525        -1.012464        -2.919007
 H         3.247342         1.511775        -1.795057
 H         1.456054         1.650829        -1.768703
 H         2.707433         2.772529         1.332944
