19
Iteration:  1640charge 0 multiplicity 1
 C         0.009750        -0.558621         0.642476
 C         1.433036        -0.265876         0.159020
 C         2.841388         0.014158         0.864891
 C         3.484357        -0.991264        -0.121547
 C         2.410034        -0.556767        -1.204048
 O         1.953688        -1.307927        -2.286392
 C         2.530685         1.172056        -1.346128
 C         2.046568         1.117570         0.014670
 O         1.658433         2.297009         0.745731
 H        -0.059005        -0.067573         1.678450
 H        -0.762424        -0.047433         0.095905
 H        -0.320422        -1.594789         0.996040
 H         2.929074         0.176280         1.964493
 H         4.548650        -0.698618        -0.394021
 H         3.420628        -1.978800         0.378827
 H         2.650998        -1.141859        -2.975243
 H         3.572593         1.515105        -1.417459
 H         1.718926         1.429669        -2.128265
 H         1.093813         1.976013         1.439016
