19
Iteration:  4831
 C        -0.032607        -0.435868         0.390008
 C         1.400552        -0.121850         0.199344
 C         2.687763        -0.121889         0.885660
 C         3.434816        -1.073722        -0.155241
 C         2.303038        -0.552405        -1.064706
 O         2.003025        -1.331230        -2.193851
 C         2.554363         1.022124        -1.285235
 C         2.207455         1.162169         0.119757
 O         1.859840         2.347620         0.745642
 H        -0.499389        -0.267874        -0.630533
 H        -0.294198        -1.425859         0.860361
 H        -0.323259         0.314925         1.153859
 H         2.796208        -0.156682         1.948934
 H         4.419512        -0.976103        -0.378899
 H         3.239079        -2.164080         0.157171
 H         1.625169        -0.795167        -2.895033
 H         3.503631         1.124568        -1.662046
 H         1.821797         1.562746        -1.932475
 H         0.912587         2.545988         0.592612
