19
Iteration:  1819
 C         0.227445        -0.596797         0.689193
 C         1.477262        -0.210008         0.106924
 C         2.772080        -0.032592         0.848325
 C         3.614837        -0.914897        -0.070996
 C         2.314624        -0.495343        -1.216263
 O         1.914952        -1.271079        -2.275276
 C         2.483384         1.039595        -1.389324
 C         1.982174         1.126864         0.065984
 O         1.550166         2.270906         0.753781
 H         0.197184        -0.138322         1.621818
 H        -0.659203        -0.406299         0.075837
 H         0.112982        -1.782064         0.698331
 H         2.922512         0.048539         1.970672
 H         4.687612        -0.833189        -0.167385
 H         3.396927        -2.025616         0.241650
 H         1.925199        -0.644366        -2.977823
 H         3.377071         1.546998        -1.790659
 H         1.732951         1.320583        -2.212694
 H         2.050897         2.483166         1.581743
