19
Iteration:  4009charge 0 multiplicity 1
 C        -0.067716        -0.620362         0.411542
 C         1.300912        -0.158563         0.100470
 C         2.597862        -0.137409         0.817326
 C         3.361373        -1.004661        -0.244697
 C         2.340023        -0.425331        -1.200361
 O         1.902912        -1.116038        -2.297222
 C         2.592093         1.086654        -1.260210
 C         2.205130         1.111654         0.185506
 O         1.977530         2.263156         0.942026
 H         0.079465        -1.607106         0.799602
 H        -0.365503         0.070283         1.176192
 H        -0.832743        -0.692343        -0.373517
 H         2.727805        -0.202271         1.846820
 H         4.478434        -0.615194        -0.410720
 H         3.246878        -2.076987         0.051943
 H         2.087096        -2.057939        -2.102420
 H         3.641842         1.322764        -1.609838
 H         1.882989         1.575288        -1.952513
 H         2.665332         2.287583         1.648590
