19
Iteration:  1293
 C         0.039884        -0.635781         0.517210
 C         1.295704        -0.125517         0.004948
 C         2.627568         0.004076         0.851614
 C         3.373056        -0.946501        -0.030053
 C         2.338381        -0.486204        -1.153728
 O         1.975836        -1.288297        -2.250452
 C         2.638993         0.998965        -1.404709
 C         2.168113         1.191041         0.116687
 O         1.832096         2.273280         0.924778
 H        -0.288252        -0.177806         1.518878
 H        -0.863273        -0.475201        -0.236236
 H         0.068332        -1.694748         0.637000
 H         2.806467         0.180985         1.913594
 H         4.400926        -0.812634        -0.335393
 H         3.221674        -2.067009         0.241619
 H         2.784798        -1.403147        -2.848398
 H         3.714634         0.969278        -1.754646
 H         1.959737         1.510935        -2.100007
 H         1.146044         2.782325         0.468152
