19
Iteration:  3469charge 0 multiplicity 1
 C         0.063455        -0.818814         0.593896
 C         1.432001        -0.232924         0.090411
 C         2.871052        -0.237538         0.788215
 C         3.454112        -0.902412        -0.452239
 C         2.329376        -0.290150        -1.171067
 O         1.767947        -0.988575        -2.310591
 C         2.641449         1.155240        -1.278008
 C         2.121578         1.100900         0.167257
 O         1.659854         2.187913         0.995081
 H        -0.407447        -0.036670         1.296770
 H        -0.557328        -1.261644        -0.204766
 H         0.241718        -1.670165         1.265744
 H         3.221552        -0.423189         1.807397
 H         4.392374        -0.485401        -0.718072
 H         3.426365        -1.952771        -0.298137
 H         1.389440        -1.808500        -1.956272
 H         3.737877         1.352434        -1.511574
 H         2.039752         1.833207        -1.972520
 H         2.361034         2.553479         1.582954
