19
Iteration:  3832charge 0 multiplicity 1
 C        -0.069954        -0.841667         0.404224
 C         1.312155        -0.191659         0.144630
 C         2.656634        -0.180199         0.819464
 C         3.352669        -0.909291        -0.314665
 C         2.256576        -0.327471        -1.162635
 O         1.934059        -1.189677        -2.263699
 C         2.533041         1.158664        -1.285257
 C         2.130834         1.123210         0.241925
 O         2.062148         2.294054         1.002705
 H        -0.489469        -0.176739         1.135027
 H        -0.795318        -0.926330        -0.408055
 H         0.176442        -1.838524         0.726400
 H         2.916405        -0.272720         1.892611
 H         4.346161        -0.677804        -0.360222
 H         3.236535        -1.988721        -0.361829
 H         1.983508        -0.691276        -3.094245
 H         3.541342         1.133435        -1.768955
 H         1.787244         1.736353        -1.915042
 H         2.950607         2.627877         1.279019
