19
Iteration:  4596
 C        -0.083385        -0.375751         0.445387
 C         1.290768        -0.199002         0.090056
 C         2.667995        -0.132213         0.900321
 C         3.344605        -0.914079        -0.065232
 C         2.360121        -0.512765        -1.102225
 O         2.140386        -1.365323        -2.298159
 C         2.482356         0.958604        -1.409434
 C         2.152542         1.084114         0.122700
 O         2.005055         2.397684         0.847076
 H        -0.840295         0.473428         0.142568
 H        -0.526031        -1.384181         0.081925
 H        -0.128485        -0.734027         1.530866
 H         2.952931        -0.116710         1.885905
 H         4.384065        -0.596031        -0.173706
 H         3.275593        -1.952298         0.000972
 H         1.467614        -2.080550        -2.264316
 H         3.410953         1.457041        -1.794793
 H         1.677508         1.362476        -1.888329
 H         1.097811         2.718165         1.025570
