19
Iteration:  4221
 C         0.036738        -0.518704         0.336490
 C         1.392875        -0.125140         0.043015
 C         2.713760        -0.157586         0.950722
 C         3.342063        -1.085495        -0.104685
 C         2.291609        -0.397882        -1.139065
 O         1.759653        -1.227101        -2.234417
 C         2.734236         1.033740        -1.211240
 C         2.174278         1.105235         0.120019
 O         1.837208         2.283376         0.879231
 H        -0.732393         0.233170         0.275513
 H        -0.349197        -1.328114        -0.242739
 H        -0.029397        -0.920570         1.306744
 H         2.657349        -0.250058         1.973670
 H         4.424211        -1.031253        -0.452420
 H         3.189356        -2.097102         0.070617
 H         2.286868        -0.823104        -2.960483
 H         3.757247         1.247491        -1.588257
 H         2.205673         1.453169        -1.999541
 H         2.462575         2.936382         0.478300
