19
Iteration:  3142charge 0 multiplicity 1
 C         0.137008        -0.635933         0.619035
 C         1.537960        -0.330204         0.114122
 C         2.850330        -0.136708         0.774830
 C         3.459762        -0.942255        -0.427586
 C         2.337950        -0.366741        -1.200436
 O         1.828726        -1.154524        -2.258977
 C         2.478745         1.215774        -1.280743
 C         2.195255         1.182331         0.244870
 O         1.522111         2.126483         0.950066
 H        -0.496539        -0.498572        -0.267828
 H         0.096085        -1.705663         1.029003
 H        -0.155241        -0.068691         1.520188
 H         3.097494        -0.487948         1.792207
 H         4.509423        -0.697294        -0.882161
 H         3.491451        -1.954418         0.000475
 H         2.523753        -1.770310        -2.589249
 H         3.434489         1.708679        -1.678098
 H         1.608872         1.660946        -1.938675
 H         1.956420         2.997606         0.942272
