19
Iteration:  1484charge 0 multiplicity 1
 C         0.016551        -0.544873         0.511479
 C         1.411744        -0.104675         0.125358
 C         2.802511        -0.087467         0.917454
 C         3.440248        -0.959065        -0.124403
 C         2.356150        -0.526437        -1.126522
 O         1.957717        -1.322440        -2.240345
 C         2.570465         0.997796        -1.417259
 C         2.166156         1.167289         0.127135
 O         1.582957         2.236355         0.807004
 H        -0.183808         0.043663         1.401634
 H        -0.838638        -0.241625        -0.042549
 H         0.046490        -1.580308         0.684857
 H         3.053924         0.049714         1.962718
 H         4.527205        -0.793854        -0.458140
 H         3.221032        -1.952284         0.076237
 H         2.601282        -0.889821        -2.826548
 H         3.546325         1.415561        -1.645248
 H         1.754671         1.493812        -1.915209
 H         2.103039         3.081499         0.649903
