19
Iteration:  3071charge 0 multiplicity 1
 C         0.077887        -0.846544         0.619420
 C         1.333120        -0.185771         0.253937
 C         2.725555        -0.168804         0.796890
 C         3.442329        -0.745259        -0.325558
 C         2.315169        -0.436285        -1.270696
 O         2.092600        -1.241790        -2.378372
 C         2.265845         1.187693        -1.276119
 C         2.054091         1.137489         0.173499
 O         1.921803         2.315336         0.899559
 H        -0.714756        -0.119379         0.530014
 H        -0.174771        -1.646360        -0.029073
 H         0.139138        -1.430660         1.530839
 H         2.829025        -0.302662         1.886466
 H         4.530659        -0.286622        -0.578462
 H         3.680963        -1.862495        -0.373371
 H         1.504725        -1.990072        -2.139133
 H         3.116002         1.772190        -1.594689
 H         1.437118         1.590129        -1.782666
 H         2.515558         2.368982         1.658440
