19
Iteration:   109
 C        -0.092607        -0.350503         0.337995
 C         1.323145        -0.105818        -0.057797
 C         2.496541        -0.217852         0.958549
 C         3.377057        -1.066399         0.032833
 C         2.413501        -0.551084        -1.117627
 O         2.046707        -1.260077        -2.256302
 C         2.844086         0.933081        -1.174444
 C         2.166481         1.126683         0.198608
 O         1.643180         2.396764         0.613445
 H        -0.260333        -0.118066         1.336992
 H        -0.835464         0.147538        -0.281145
 H        -0.090294        -1.499108         0.301478
 H         2.521415        -0.168284         2.046587
 H         4.419970        -0.896328         0.034059
 H         3.242753        -2.165179         0.323961
 H         2.809173        -1.648060        -2.631530
 H         3.907152         1.183441        -1.221996
 H         2.264362         1.516764        -1.858450
 H         2.291936         2.816377         1.198774
