19
Iteration:  1887
 C         0.015704        -0.652776         0.549320
 C         1.401611        -0.367751         0.154010
 C         2.753018         0.025020         0.761627
 C         3.632974        -0.745466        -0.215263
 C         2.363946        -0.455083        -1.116764
 O         1.983899        -1.367442        -2.177325
 C         2.362837         1.037862        -1.353409
 C         2.057017         1.116107         0.126330
 O         1.743267         2.281331         0.875711
 H        -0.343976        -0.008113         1.347578
 H        -0.700145        -0.689966        -0.285207
 H        -0.086585        -1.696577         0.850725
 H         2.916096         0.044648         1.810413
 H         4.615830        -0.320481        -0.452990
 H         3.644814        -1.755986         0.185421
 H         1.871996        -0.943474        -3.088252
 H         3.238902         1.496676        -1.882456
 H         1.498610         1.400390        -1.877584
 H         2.321504         2.916809         0.468729
