19
Iteration:  4561charge 0 multiplicity 1
 C        -0.093021        -0.370745         0.543945
 C         1.316057        -0.093873         0.081627
 C         2.711892        -0.123508         0.907403
 C         3.365836        -0.983038        -0.103315
 C         2.340229        -0.556392        -1.183722
 O         2.029238        -1.296218        -2.289458
 C         2.661791         0.992688        -1.354947
 C         2.132996         1.092498         0.073877
 O         1.859873         2.316156         0.849647
 H        -0.918158         0.217029         0.020719
 H        -0.274953        -1.458325         0.272823
 H        -0.230126        -0.188324         1.624332
 H         3.143281        -0.098369         1.959722
 H         4.438101        -0.775180        -0.353192
 H         3.262913        -2.006976         0.081063
 H         2.137199        -2.213277        -1.940765
 H         3.718107         1.301818        -1.532178
 H         1.947360         1.464351        -2.049392
 H         0.985948         2.521194         0.483649
