19
Iteration:  4060
 C         0.014175        -0.668280         0.341001
 C         1.341436        -0.183489         0.088185
 C         2.750218        -0.139149         0.853267
 C         3.332128        -1.078831        -0.155109
 C         2.267055        -0.455416        -1.094383
 O         1.802740        -1.153337        -2.245526
 C         2.737393         1.064619        -1.249222
 C         2.228753         1.117039         0.213466
 O         1.813813         2.365433         0.894128
 H        -0.229672        -1.576763        -0.301411
 H        -0.059549        -0.868685         1.459528
 H        -0.679491         0.168035         0.149069
 H         2.904354        -0.204185         1.951566
 H         4.318235        -1.185534        -0.513958
 H         2.889811        -2.097033        -0.189398
 H         2.024569        -0.591031        -3.029867
 H         3.761280         1.178227        -1.513916
 H         2.181016         1.581983        -2.063258
 H         2.620732         2.897086         0.829696
