19
Iteration:  2174
 C         0.086923        -0.819152         0.601838
 C         1.382044        -0.218049         0.204911
 C         2.758107        -0.033511         0.877547
 C         3.452165        -0.820265        -0.206839
 C         2.307832        -0.451426        -1.135930
 O         2.058190        -1.381506        -2.294406
 C         2.433848         1.072305        -1.328969
 C         1.932217         1.103722         0.065636
 O         1.779721         2.420802         0.826878
 H         0.117860        -0.886432         1.774337
 H        -0.820434        -0.321433         0.216302
 H         0.037862        -1.886755         0.359590
 H         3.052434         0.051844         1.886883
 H         4.397692        -0.329247        -0.554682
 H         3.551256        -1.893112        -0.148940
 H         1.919155        -0.755242        -2.976913
 H         3.511514         1.398926        -1.484496
 H         1.667638         1.574442        -1.993585
 H         2.572203         2.981345         0.577843
