19
Iteration:   345
 C        -0.148126        -0.327335         0.372564
 C         1.272788        -0.168097        -0.050052
 C         2.467609        -0.152537         0.891678
 C         3.212586        -1.096193        -0.023435
 C         2.361980        -0.566347        -1.115954
 O         2.470059        -1.418709        -2.312305
 C         2.691138         1.077163        -1.274993
 C         2.121382         1.108790         0.169034
 O         1.857932         2.374589         0.898955
 H        -0.093994         0.454963         1.194518
 H        -0.938524         0.124685        -0.349513
 H        -0.356702        -1.214575         0.897660
 H         2.436860        -0.073470         1.982178
 H         4.307404        -1.115339        -0.193995
 H         2.835264        -2.067969         0.261697
 H         1.618342        -1.299642        -2.851722
 H         3.723730         1.505371        -1.348194
 H         1.976864         1.534555        -1.970498
 H         1.172705         2.911507         0.477278
