19
Iteration:  3530charge 0 multiplicity 1
 C         0.001495        -0.626926         0.656180
 C         1.423796        -0.224687         0.198169
 C         2.782232        -0.227115         0.731239
 C         3.533042        -0.928847        -0.392272
 C         2.252539        -0.425817        -1.242289
 O         2.000770        -1.125394        -2.346618
 C         2.247810         1.160720        -1.209898
 C         2.085713         1.097160         0.184617
 O         1.948183         2.178141         0.958040
 H        -0.434154        -0.318413         1.582047
 H        -0.654708        -0.126512        -0.070600
 H        -0.152283        -1.711782         0.443523
 H         3.208440        -0.099884         1.702435
 H         4.467892        -0.265013        -0.568193
 H         3.675318        -2.074156        -0.195457
 H         2.298776        -0.498619        -3.011219
 H         3.168004         1.563735        -1.732211
 H         1.340416         1.522243        -1.745007
 H         1.642753         1.838067         1.814409
