19
Iteration:  3818
 C        -0.019907        -0.783852         0.450214
 C         1.290346        -0.112791         0.041518
 C         2.693564        -0.193222         0.802015
 C         3.409045        -0.967589        -0.283264
 C         2.240841        -0.422441        -1.199990
 O         1.866757        -1.148569        -2.269491
 C         2.535925         1.116981        -1.265522
 C         2.187315         1.128429         0.224543
 O         1.994954         2.296242         1.019283
 H        -0.778771        -0.210714         1.050102
 H        -0.499928        -1.034475        -0.479942
 H         0.137699        -1.683306         0.994989
 H         2.854299        -0.214068         1.842974
 H         4.381072        -0.566485        -0.740031
 H         3.323546        -2.088219        -0.027259
 H         2.481782        -0.951395        -3.022771
 H         3.424544         1.761428        -1.470068
 H         1.639394         1.631566        -1.712420
 H         2.856512         2.381266         1.449439
