19
Iteration:  2545
 C         0.199336        -0.549035         0.654174
 C         1.440731        -0.200133         0.166159
 C         2.806927        -0.062494         0.899178
 C         3.536283        -1.003555        -0.333750
 C         2.298940        -0.488905        -1.154992
 O         1.917199        -1.226410        -2.296578
 C         2.638226         1.071755        -1.168453
 C         2.063450         1.110534         0.089421
 O         1.436568         2.273187         0.642043
 H        -0.298189         0.270571         1.330678
 H        -0.489442        -0.830509        -0.147701
 H         0.202502        -1.488419         1.292163
 H         2.879026        -0.156981         1.922987
 H         4.512110        -0.577437        -0.680737
 H         3.436658        -1.986071         0.134383
 H         2.582043        -1.893939        -2.238538
 H         3.607601         1.556365        -1.428713
 H         1.876952         1.578095        -1.803898
 H         1.866774         2.813118         1.367814
