19
Iteration:   815
 C        -0.095871        -0.387761         0.289299
 C         1.347391        -0.083365         0.069729
 C         2.636241        -0.106942         0.839676
 C         3.415742        -0.964209        -0.078441
 C         2.402578        -0.499210        -1.134110
 O         2.137688        -1.309073        -2.194329
 C         2.532023         1.050160        -1.356295
 C         2.085731         1.186926         0.065399
 O         1.863242         2.192852         0.939763
 H        -0.440461         0.300919         1.141257
 H        -0.592476        -0.091238        -0.569324
 H        -0.326427        -1.485996         0.577765
 H         2.699801        -0.166707         1.941308
 H         4.517597        -0.937652        -0.317661
 H         3.251154        -1.998353         0.202570
 H         2.075879        -2.258297        -1.874112
 H         3.577592         1.280905        -1.597468
 H         1.933943         1.512017        -2.093449
 H         1.072073         1.934000         1.428143
