19
Iteration:  2617charge 0 multiplicity 1
 C        -0.020854        -0.858133         0.441909
 C         1.325678        -0.258820         0.135893
 C         2.723040        -0.052052         0.829293
 C         3.488446        -0.788300        -0.264697
 C         2.336344        -0.407024        -1.197088
 O         2.116209        -1.458320        -2.190032
 C         2.406826         1.122747        -1.321584
 C         2.080356         1.181520         0.207524
 O         1.848336         2.479351         0.932106
 H        -0.792851        -0.149423         0.440059
 H        -0.253409        -1.660541        -0.342052
 H        -0.195917        -1.216777         1.492273
 H         2.840767        -0.029626         1.926641
 H         4.406429        -0.347055        -0.663389
 H         3.508018        -1.891900        -0.173593
 H         1.232559        -1.725431        -2.351349
 H         3.345689         1.404403        -1.907341
 H         1.472877         1.469966        -1.826735
 H         2.591376         3.103806         0.677366
