19
Iteration:  2969
 C         0.092660        -0.652751         0.619722
 C         1.493061        -0.301086         0.261017
 C         2.866402        -0.133941         0.837422
 C         3.531434        -0.918934        -0.430540
 C         2.288954        -0.414612        -1.192668
 O         1.938985        -1.161524        -2.375444
 C         2.388292         1.149433        -1.268692
 C         2.134178         1.124027         0.215177
 O         1.598269         2.225412         0.904907
 H        -0.435984         0.224490         0.987182
 H        -0.392186        -0.782915        -0.373723
 H        -0.077169        -1.516625         1.279350
 H         3.195287        -0.198878         1.848785
 H         4.510813        -0.413129        -0.664212
 H         3.276591        -1.968430        -0.145946
 H         2.262902        -2.061113        -2.126271
 H         3.343393         1.524390        -1.608804
 H         1.576158         1.553297        -1.910012
 H         2.254753         2.962294         0.855761
