19
Iteration:  1833
 C         0.144864        -0.648055         0.715637
 C         1.483991        -0.271171         0.122155
 C         2.779110        -0.024662         0.872799
 C         3.460917        -0.943974        -0.167125
 C         2.466119        -0.441570        -1.164940
 O         1.973667        -1.283784        -2.203600
 C         2.429347         1.124680        -1.450070
 C         2.120715         1.143813         0.063502
 O         1.526651         2.232308         0.737943
 H        -0.003864         0.014156         1.630310
 H        -0.739128        -0.247715         0.097029
 H        -0.021356        -1.716206         0.994949
 H         2.803325         0.080095         1.952134
 H         4.516065        -0.707800        -0.490390
 H         3.256654        -2.000153         0.008048
 H         2.020802        -0.862620        -3.136212
 H         3.413423         1.566506        -1.783520
 H         1.541899         1.508740        -1.936922
 H         2.239586         2.483774         1.318812
