19
Iteration:  1623
 C         0.094494        -0.545098         0.656357
 C         1.363684        -0.184147         0.041990
 C         2.648875        -0.060660         0.826299
 C         3.569034        -0.851154        -0.124120
 C         2.352069        -0.501152        -1.166014
 O         1.988111        -1.365498        -2.261275
 C         2.535809         0.995758        -1.351561
 C         2.083568         1.169871         0.129938
 O         1.703828         2.283825         0.766747
 H        -0.096431        -0.095271         1.617821
 H        -0.810071        -0.196750         0.046506
 H         0.107516        -1.626157         0.669640
 H         2.851449        -0.004853         1.884829
 H         4.580226        -0.508440        -0.309369
 H         3.353856        -1.930235         0.002794
 H         2.289772        -1.015796        -3.110367
 H         3.549997         1.362529        -1.611096
 H         1.746790         1.404972        -1.924525
 H         1.243075         2.202917         1.596869
