19
Iteration:  3594charge 0 multiplicity 1
 C         0.156952        -0.775690         0.545626
 C         1.355292        -0.180541         0.096819
 C         2.807478        -0.165878         0.841717
 C         3.432414        -0.977002        -0.326113
 C         2.382311        -0.365375        -1.234637
 O         1.761975        -1.010001        -2.294905
 C         2.527566         1.125677        -1.297913
 C         2.109937         1.161681         0.172851
 O         1.813151         2.253307         0.969048
 H         0.052030        -1.166274         1.555283
 H        -0.640663        -0.012300         0.295048
 H        -0.025846        -1.584666        -0.238374
 H         2.982842        -0.318682         1.904877
 H         4.429633        -0.890429        -0.617952
 H         3.243306        -2.066053        -0.273277
 H         2.025222        -1.947877        -2.296702
 H         3.566259         1.471730        -1.602287
 H         1.647625         1.497168        -1.852985
 H         1.907437         1.841508         1.868569
