19
Iteration:  2209charge 0 multiplicity 1
 C         0.136769        -0.762716         0.600927
 C         1.394950        -0.156016         0.116253
 C         2.803269        -0.062652         0.896676
 C         3.390486        -0.940465        -0.184492
 C         2.337389        -0.415714        -1.201571
 O         2.079359        -1.345605        -2.229063
 C         2.438415         1.152805        -1.371233
 C         2.162847         1.212090         0.123273
 O         1.609447         2.253742         0.775237
 H         0.132242        -0.561447         1.740023
 H        -0.877297        -0.467752         0.264982
 H         0.309826        -1.815499         0.354008
 H         3.008918         0.095917         1.980802
 H         4.463441        -0.818630        -0.447430
 H         3.239961        -2.000164         0.098098
 H         1.295247        -1.008116        -2.607521
 H         3.326144         1.586417        -1.939862
 H         1.477343         1.730725        -1.742556
 H         2.292391         2.966585         0.910382
