19
Iteration:  3665charge 0 multiplicity 1
 C         0.006946        -0.739389         0.495972
 C         1.353093        -0.152757         0.126157
 C         2.777685        -0.284440         0.822643
 C         3.440786        -0.922459        -0.319128
 C         2.267440        -0.453624        -1.207922
 O         1.962269        -1.099594        -2.376948
 C         2.461835         1.173423        -1.277543
 C         2.143284         1.129193         0.249483
 O         1.909838         2.243428         1.023820
 H        -0.158599        -0.547262         1.595972
 H        -0.841562        -0.319103        -0.034609
 H         0.024909        -1.807923         0.333619
 H         2.801660        -0.188318         1.947587
 H         4.526904        -0.628048        -0.527918
 H         3.413128        -2.090138        -0.339182
 H         1.061998        -1.443088        -2.310091
 H         3.395593         1.715764        -1.568765
 H         1.547189         1.614205        -1.739857
 H         2.526171         2.965983         0.730213
