19
Iteration:  3629
 C         0.102716        -0.849147         0.490064
 C         1.398934        -0.097406         0.085204
 C         2.832835        -0.099620         0.858556
 C         3.466341        -0.967740        -0.302191
 C         2.288012        -0.425195        -1.149262
 O         1.692526        -1.115120        -2.330258
 C         2.572882         1.115614        -1.195082
 C         2.146838         1.082878         0.208551
 O         1.799553         2.279889         0.918684
 H        -0.086647        -1.233655         1.495959
 H        -0.770556        -0.236007         0.195870
 H         0.064175        -1.692458        -0.245642
 H         3.111548        -0.239474         1.877711
 H         4.448252        -0.759497        -0.702199
 H         3.319229        -2.064691        -0.187415
 H         1.928701        -0.571978        -3.094763
 H         3.641701         1.506845        -1.398927
 H         1.881617         1.743268        -1.775138
 H         2.531835         2.374945         1.584042
