19
Iteration:   249charge 0 multiplicity 1
 C         0.002636        -0.557739         0.033457
 C         1.356905        -0.018934        -0.045896
 C         2.532156        -0.034617         0.941734
 C         3.291426        -1.035354        -0.017862
 C         2.370565        -0.483629        -1.072175
 O         1.898939        -1.343128        -2.013902
 C         2.773791         1.024258        -1.281612
 C         2.233174         1.235318         0.154703
 O         1.818533         2.302590         0.778329
 H        -0.441921        -0.249673         0.962034
 H        -0.546431        -0.134621        -0.893489
 H         0.188962        -1.622084         0.070247
 H         2.375743        -0.218738         2.011133
 H         4.372588        -1.182388        -0.013924
 H         2.861602        -2.102622         0.255051
 H         2.725291        -1.717735        -2.370315
 H         3.886280         1.237779        -1.485408
 H         2.056473         1.537179        -1.908525
 H         1.967581         2.131127         1.707072
