19
Iteration:  3261charge 0 multiplicity 1
 C         0.108215        -0.876745         0.603472
 C         1.318847        -0.236773         0.119280
 C         2.730004        -0.040932         0.780080
 C         3.494299        -0.839790        -0.316702
 C         2.311197        -0.401316        -1.207459
 O         1.969688        -1.129096        -2.382664
 C         2.391158         1.192307        -1.285512
 C         2.053828         1.148268         0.179591
 O         1.920206         2.211746         1.003157
 H         0.290637        -1.943444         0.771169
 H        -0.316591        -0.264438         1.382283
 H        -0.649808        -0.803669        -0.160034
 H         2.823837        -0.195031         1.868034
 H         4.474785        -0.504144        -0.762006
 H         3.667101        -1.894480        -0.180009
 H         1.066465        -1.504606        -2.385432
 H         3.321580         1.515516        -1.709506
 H         1.577761         1.512208        -2.002406
 H         2.277898         2.000868         1.885138
