19
Iteration:  2960
 C         0.060408        -0.614984         0.632256
 C         1.503070        -0.321704         0.273864
 C         2.811373        -0.177589         0.829429
 C         3.480424        -0.784594        -0.375758
 C         2.292161        -0.427770        -1.213308
 O         2.022468        -1.172567        -2.381318
 C         2.333484         1.159863        -1.367598
 C         2.085493         1.095571         0.209378
 O         1.669010         2.234394         0.944996
 H        -0.319794         0.159786         1.280947
 H        -0.416014        -0.724540        -0.319468
 H        -0.172804        -1.516802         1.241375
 H         3.168983        -0.196964         1.826806
 H         4.620664        -0.840822        -0.747833
 H         3.514924        -1.943863        -0.210374
 H         2.272093        -2.116315        -2.188349
 H         3.246868         1.503950        -1.857160
 H         1.450711         1.281820        -1.965088
 H         2.424498         2.836415         1.171772
