19
Iteration:  1266
 C        -0.071556        -0.481167         0.503922
 C         1.265491        -0.147336         0.107046
 C         2.686621        -0.074215         0.845913
 C         3.416860        -0.954956        -0.140401
 C         2.364516        -0.522829        -1.147464
 O         2.113510        -1.436845        -2.237923
 C         2.598464         1.094164        -1.334641
 C         2.012116         1.160464         0.129952
 O         1.889489         2.320953         0.866104
 H        -0.370777        -0.115929         1.439884
 H        -0.693786        -0.175745        -0.269710
 H        -0.344621        -1.585285         0.520254
 H         2.833992        -0.078426         1.921178
 H         4.384968        -0.670562        -0.645537
 H         3.481795        -2.002982        -0.010312
 H         2.596068        -1.039375        -3.038942
 H         3.591795         1.259940        -1.709304
 H         1.830427         1.538447        -2.036705
 H         1.037521         2.401762         1.323175
