19
Iteration:  3805charge 0 multiplicity 1
 C         0.061242        -0.710805         0.440822
 C         1.386340        -0.152492         0.104958
 C         2.700613        -0.143503         0.857303
 C         3.408254        -0.964657        -0.278229
 C         2.313441        -0.463978        -1.169325
 O         1.765005        -1.120594        -2.393087
 C         2.491047         1.198027        -1.234505
 C         2.156563         1.155420         0.215403
 O         1.936481         2.229121         0.998570
 H        -0.571692         0.092024         0.910412
 H        -0.417211        -1.111329        -0.470359
 H         0.143816        -1.571602         1.164582
 H         2.613580        -0.357035         1.923610
 H         4.624678        -0.846645        -0.455521
 H         3.360482        -2.105767        -0.173024
 H         2.554419        -1.484707        -2.823326
 H         3.515682         1.348346        -1.611692
 H         1.753575         1.516264        -1.955896
 H         2.636794         2.350296         1.677943
