19
Iteration:  1135
 C        -0.115053        -0.718327         0.355195
 C         1.272746        -0.192472         0.111343
 C         2.638022        -0.009574         0.938263
 C         3.314975        -1.001293        -0.049282
 C         2.284190        -0.525917        -1.141814
 O         2.076520        -1.138640        -2.347211
 C         2.636503         1.007167        -1.190744
 C         2.084485         1.129595         0.190617
 O         2.047681         2.389602         0.737153
 H        -0.593337        -0.082372         1.064963
 H        -0.647100        -0.388414        -0.559852
 H        -0.196415        -1.822545         0.641389
 H         2.827388         0.012686         2.004973
 H         4.396372        -0.774941        -0.334903
 H         3.151498        -1.958479         0.415614
 H         2.462533        -2.020606        -2.235884
 H         3.704867         1.220712        -1.446931
 H         2.009537         1.367490        -2.090167
 H         1.174767         2.742157         0.846337
