19
Iteration:  1888charge 0 multiplicity 1
 C         0.009052        -0.658297         0.542119
 C         1.404803        -0.358360         0.141836
 C         2.759370         0.027853         0.761922
 C         3.629450        -0.748004        -0.204350
 C         2.369601        -0.454311        -1.119882
 O         1.983174        -1.359948        -2.168397
 C         2.350113         1.040190        -1.353633
 C         2.061446         1.103902         0.125366
 O         1.744551         2.276639         0.873727
 H        -0.352736        -0.007328         1.397426
 H        -0.715895        -0.688252        -0.309099
 H        -0.062973        -1.687329         0.872912
 H         2.907846         0.074176         1.813488
 H         4.637097        -0.337278        -0.469503
 H         3.665125        -1.747775         0.171008
 H         1.863583        -0.925385        -3.045299
 H         3.239519         1.467568        -1.899505
 H         1.485588         1.419029        -1.862454
 H         2.340015         2.890871         0.445821
