19
Iteration:  4458charge 0 multiplicity 1
 C        -0.109964        -0.630255         0.351349
 C         1.315144        -0.161706         0.089782
 C         2.614734        -0.060185         0.849084
 C         3.339306        -0.999152        -0.069006
 C         2.332878        -0.479067        -1.104436
 O         2.021944        -1.363679        -2.151402
 C         2.558641         1.047869        -1.365736
 C         2.121328         1.176623         0.087619
 O         2.165652         2.402721         0.893163
 H        -0.356271        -1.247168        -0.478721
 H        -0.299767        -1.136747         1.282978
 H        -0.755783         0.271068         0.247971
 H         2.665319        -0.187630         1.884826
 H         4.369025        -0.863245        -0.354748
 H         3.192709        -2.036162         0.383079
 H         1.172858        -1.073383        -2.556647
 H         3.526314         1.301453        -1.782301
 H         1.837049         1.452176        -2.203954
 H         1.262705         2.737038         0.766098
