19
Iteration:  1976charge 0 multiplicity 1
 C         0.181974        -0.772527         0.653633
 C         1.383653        -0.194994         0.033790
 C         2.647710        -0.106231         0.862696
 C         3.537532        -0.807450        -0.119868
 C         2.337406        -0.389232        -1.163476
 O         1.991419        -1.281226        -2.179896
 C         2.553636         1.030395        -1.443573
 C         2.042744         1.195272         0.042945
 O         1.657405         2.301021         0.776664
 H         0.361646        -0.442741         1.658159
 H        -0.827520        -0.420084         0.506752
 H         0.170416        -1.799859         0.512345
 H         2.559025        -0.095440         1.977483
 H         4.524190        -0.391403        -0.349330
 H         3.504025        -1.849739        -0.121813
 H         1.050894        -1.086753        -2.425951
 H         3.572798         1.292422        -1.847883
 H         1.860064         1.279277        -2.236826
 H         2.282680         2.309075         1.489583
