19
Iteration:  1922charge 0 multiplicity 1
 C         0.135526        -0.735262         0.468416
 C         1.496347        -0.169313         0.286430
 C         2.810141        -0.060944         0.823571
 C         3.495447        -0.858187        -0.226429
 C         2.305309        -0.485745        -1.166490
 O         2.007192        -1.381068        -2.140132
 C         2.358975         1.058286        -1.399948
 C         2.106789         1.191719         0.139636
 O         1.629080         2.371413         0.819258
 H        -0.552458        -0.406364         1.332676
 H        -0.354713        -0.530424        -0.506273
 H         0.329825        -1.776818         0.541837
 H         3.033509         0.000648         1.896911
 H         4.516904        -0.559393        -0.590061
 H         3.467208        -1.891892         0.013784
 H         1.349565        -0.904864        -2.747441
 H         3.292263         1.290975        -1.952749
 H         1.444654         1.401313        -1.871751
 H         2.446146         2.813973         1.034788
