19
Iteration:  4479
 C        -0.060321        -0.612900         0.325311
 C         1.306764         0.011592         0.108465
 C         2.629148        -0.070167         0.950483
 C         3.374912        -0.977887        -0.093078
 C         2.290119        -0.538358        -1.100221
 O         1.915922        -1.380263        -2.204205
 C         2.637073         0.955307        -1.276252
 C         2.140637         1.167168         0.128977
 O         2.069134         2.353056         0.819605
 H        -0.309614        -1.233988        -0.512821
 H        -0.001844        -1.157494         1.227515
 H        -0.738560         0.205942         0.591853
 H         2.877291         0.126003         1.936990
 H         4.391591        -0.661810        -0.323687
 H         3.345615        -2.164137        -0.131869
 H         1.806648        -0.814554        -2.974610
 H         3.656323         1.292367        -1.612157
 H         1.926222         1.539427        -2.088303
 H         1.132517         2.653126         0.638316
