19
Iteration:  4042charge 0 multiplicity 1
 C         0.035469        -0.657134         0.371528
 C         1.357318        -0.065660         0.108219
 C         2.678281        -0.127523         0.892611
 C         3.295790        -1.113187        -0.203995
 C         2.341191        -0.425995        -1.171780
 O         1.742406        -1.179674        -2.303803
 C         2.689872         1.070521        -1.211143
 C         2.187632         1.181124         0.170788
 O         1.888812         2.301108         0.891977
 H         0.161155        -1.671949         0.071340
 H        -0.118502        -0.853208         1.397738
 H        -0.828502        -0.216280        -0.121289
 H         2.653434        -0.277264         1.920158
 H         4.428920        -1.017845        -0.345636
 H         3.308579        -2.075909         0.295790
 H         2.425006        -1.302345        -3.014931
 H         3.778650         1.345142        -1.291259
 H         2.039402         1.602602        -1.909255
 H         2.670443         2.757699         1.222886
