19
Iteration:  4161charge 0 multiplicity 1
 C        -0.067702        -0.266392         0.475330
 C         1.414271        -0.294002         0.088386
 C         2.614833        -0.139442         0.851292
 C         3.385305        -0.993455        -0.215387
 C         2.295528        -0.472995        -1.261349
 O         1.992759        -1.221694        -2.335765
 C         2.569324         1.036188        -1.286205
 C         2.196996         1.140748         0.180203
 O         1.851483         2.198164         0.962123
 H        -0.715619        -0.174972        -0.439672
 H        -0.257023        -1.283388         0.913986
 H        -0.287637         0.549016         1.245074
 H         2.619027        -0.219146         1.967721
 H         4.437771        -0.838747        -0.409810
 H         3.152122        -2.075720         0.133100
 H         2.556583        -1.999839        -2.410487
 H         3.613196         1.207709        -1.672699
 H         1.715117         1.253849        -1.981638
 H         2.412763         2.403383         1.750947
