19
Iteration:  3344charge 0 multiplicity 1
 C         0.098953        -0.663371         0.597446
 C         1.482998        -0.263414         0.201646
 C         2.842492        -0.132071         0.785738
 C         3.552673        -0.944822        -0.401042
 C         2.306980        -0.390979        -1.196667
 O         1.830288        -1.047307        -2.354553
 C         2.389827         1.182756        -1.218260
 C         2.111013         1.062824         0.193144
 O         1.763925         2.170347         0.938160
 H         0.033656        -0.954401         1.652222
 H        -0.662285         0.144042         0.633713
 H        -0.161262        -1.517467        -0.079375
 H         3.118286        -0.128101         1.884105
 H         4.594418        -0.690126        -0.681243
 H         3.229908        -2.032530        -0.400797
 H         2.521788        -1.266611        -2.975739
 H         3.285132         1.552885        -1.755913
 H         1.508603         1.502562        -1.718999
 H         1.261864         1.788639         1.671222
