19
Iteration:  2683charge 0 multiplicity 1
 C         0.139078        -0.704124         0.559861
 C         1.441032        -0.146797         0.099970
 C         2.871195         0.014907         0.820571
 C         3.610354        -0.912644        -0.185339
 C         2.321718        -0.525339        -1.159664
 O         1.782778        -1.213393        -2.225297
 C         2.529575         0.993924        -1.292835
 C         2.123737         1.162168         0.138925
 O         1.525195         2.236379         0.795814
 H        -0.424261        -0.641746        -0.367329
 H         0.236180        -1.821603         0.763977
 H        -0.489208        -0.209602         1.409296
 H         3.065044         0.217320         1.837017
 H         4.614731        -0.527589        -0.412076
 H         3.600147        -1.936589         0.219361
 H         2.304672        -0.993412        -3.072069
 H         3.479154         1.521345        -1.692192
 H         1.691830         1.440008        -1.883008
 H         2.195523         2.567486         1.401809
