19
Iteration:  3156
 C         0.219294        -0.655047         0.604624
 C         1.516389        -0.223762         0.131727
 C         2.875572        -0.136984         0.792248
 C         3.564411        -0.915901        -0.416817
 C         2.309008        -0.397366        -1.204362
 O         1.736235        -1.105863        -2.224192
 C         2.582787         1.188925        -1.257299
 C         2.142934         1.072975         0.148654
 O         1.482391         2.085343         0.984221
 H        -0.501821        -0.800113        -0.223594
 H         0.098037        -1.637383         1.175486
 H        -0.197875         0.282675         1.100102
 H         3.001279        -0.075057         1.880232
 H         4.536252        -0.740558        -0.757654
 H         3.171416        -1.933872        -0.426754
 H         2.428275        -1.629365        -2.620753
 H         3.631233         1.635371        -1.469319
 H         1.770411         1.662605        -1.837720
 H         1.684942         2.937223         0.553816
