19
Iteration:   806charge 0 multiplicity 1
 C        -0.126145        -0.348431         0.284579
 C         1.359569        -0.151080         0.126968
 C         2.674223        -0.141956         0.964366
 C         3.419277        -0.951020        -0.004482
 C         2.378354        -0.487908        -1.150163
 O         2.105085        -1.291028        -2.287757
 C         2.554751         1.058221        -1.429049
 C         2.150355         1.130219         0.064478
 O         1.830338         2.208913         0.895385
 H        -0.483405         0.261655         1.148307
 H        -0.730003        -0.159023        -0.585676
 H        -0.334020        -1.391694         0.613936
 H         2.864799         0.001365         2.034278
 H         4.427149        -0.577465        -0.068490
 H         3.204235        -2.053237         0.063491
 H         2.186984        -2.230642        -1.917601
 H         3.592999         1.438744        -1.620926
 H         1.813269         1.510062        -2.097777
 H         1.235162         1.791729         1.533213
