19
Iteration:  3656
 C         0.056697        -0.792404         0.508134
 C         1.372907        -0.229500         0.065384
 C         2.705274        -0.264871         0.869996
 C         3.437996        -0.981906        -0.308733
 C         2.271199        -0.376785        -1.154292
 O         1.922613        -1.091434        -2.313270
 C         2.477210         1.198921        -1.313866
 C         2.179809         1.120185         0.224534
 O         1.873212         2.288399         0.999156
 H        -0.103877        -0.794356         1.604735
 H        -0.681619        -0.203658        -0.049430
 H        -0.115661        -1.823938         0.215996
 H         2.955024        -0.332549         1.983867
 H         4.527845        -0.494675        -0.683043
 H         3.539823        -2.106929        -0.422791
 H         0.974260        -0.982001        -2.474935
 H         3.450404         1.431139        -1.699315
 H         1.685980         1.814787        -1.796832
 H         2.679997         2.830140         0.771631
