19
Iteration:  2046
 C         0.041620        -0.610117         0.593823
 C         1.404587        -0.242386         0.122830
 C         2.811702        -0.070649         0.899551
 C         3.584437        -0.844537        -0.260510
 C         2.295654        -0.493984        -1.156335
 O         2.086376        -1.341180        -2.263165
 C         2.346062         1.034311        -1.343973
 C         2.128158         1.162118         0.124083
 O         1.636787         2.266626         0.847951
 H        -0.273756         0.217230         1.283328
 H        -0.755517        -0.833508        -0.120342
 H         0.253623        -1.559522         1.067349
 H         2.946769         0.044101         1.946667
 H         4.615605        -0.456174        -0.273575
 H         3.600425        -1.937655         0.032899
 H         1.561594        -0.856718        -2.981183
 H         3.168392         1.477194        -1.923523
 H         1.368409         1.499681        -1.619306
 H         2.255810         2.941770         0.590062
