19
Iteration:  3999charge 0 multiplicity 1
 C        -0.091421        -0.571337         0.444173
 C         1.342851        -0.129382         0.074749
 C         2.702991        -0.200202         0.849687
 C         3.390172        -0.952320        -0.197716
 C         2.254389        -0.499890        -1.147001
 O         1.963927        -1.159362        -2.385342
 C         2.576482         1.139098        -1.276075
 C         2.120424         1.136669         0.197340
 O         1.986552         2.258160         0.949894
 H        -0.138477        -1.507146         1.022559
 H        -0.682405         0.100211         1.085147
 H        -0.711771        -0.686145        -0.495518
 H         2.763089        -0.320559         1.874374
 H         4.506083        -0.810606        -0.681898
 H         3.268415        -2.063028        -0.142759
 H         1.769863        -2.102591        -2.138453
 H         3.638915         1.554708        -1.451157
 H         1.816459         1.510169        -1.978706
 H         2.672339         2.254138         1.638827
