19
Iteration:  1243
 C        -0.074476        -0.394632         0.400056
 C         1.357390        -0.282192         0.136037
 C         2.671733        -0.185349         0.912035
 C         3.459792        -0.874893        -0.110279
 C         2.342922        -0.508155        -1.129294
 O         2.131177        -1.346950        -2.208176
 C         2.491932         1.070379        -1.275054
 C         2.185308         1.106983         0.180947
 O         1.835767         2.317197         0.676819
 H        -0.214332         0.019134         1.371284
 H        -0.721727         0.034749        -0.265741
 H        -0.579540        -1.409269         0.558078
 H         2.678264        -0.351127         1.980542
 H         4.557823        -0.689945        -0.332787
 H         3.357736        -1.910132        -0.196327
 H         1.745893        -0.921181        -2.942362
 H         3.318892         1.627189        -1.764729
 H         1.489259         1.358085        -1.659863
 H         1.356000         2.098915         1.489415
