19
Iteration:  2819
 C         0.113550        -0.831836         0.482875
 C         1.455617        -0.196090         0.134148
 C         2.784623        -0.042756         0.839698
 C         3.507636        -0.782388        -0.308012
 C         2.323313        -0.416570        -1.183996
 O         1.837095        -1.183831        -2.200478
 C         2.557688         1.099313        -1.339567
 C         2.121979         1.121433         0.204488
 O         1.687858         2.238141         0.918333
 H         0.201850        -1.724953         1.217062
 H        -0.714377        -0.172598         0.818659
 H        -0.436106        -1.264229        -0.455522
 H         3.088582        -0.091342         1.866568
 H         4.569560        -0.591024        -0.544398
 H         3.520343        -1.910750        -0.166473
 H         1.268164        -1.943742        -2.053374
 H         3.670946         1.306873        -1.604584
 H         1.760107         1.584119        -1.938176
 H         1.953497         3.103724         0.535803
