19
Iteration:  1233charge 0 multiplicity 1
 C        -0.071517        -0.377053         0.408715
 C         1.408240        -0.271431         0.099888
 C         2.651957        -0.176992         0.966766
 C         3.471472        -0.957639        -0.156930
 C         2.360728        -0.484155        -1.074533
 O         2.134186        -1.297155        -2.222150
 C         2.478312         1.010690        -1.308417
 C         2.205217         1.073700         0.202788
 O         1.769896         2.322568         0.678680
 H        -0.328023         0.157693         1.284396
 H        -0.493225         0.183498        -0.381890
 H        -0.429104        -1.479155         0.405569
 H         2.725712        -0.419364         2.017709
 H         4.416875        -0.415936        -0.498505
 H         3.535748        -2.003752         0.097529
 H         1.423801        -0.788109        -2.583730
 H         3.273861         1.392202        -1.974861
 H         1.496708         1.371923        -1.817252
 H         1.531877         2.352373         1.596900
