19
Iteration:  2154charge 0 multiplicity 1
 C        -0.005133        -0.847581         0.647802
 C         1.339436        -0.264172         0.179464
 C         2.663578         0.040033         0.839463
 C         3.615472        -0.760752        -0.201223
 C         2.338518        -0.456000        -1.156662
 O         2.001498        -1.261099        -2.218038
 C         2.429891         1.062352        -1.383408
 C         2.095675         1.098768         0.089807
 O         1.797324         2.272622         0.746528
 H        -0.300186        -0.833159         1.744672
 H        -0.780822        -0.368131         0.053268
 H         0.011490        -1.889750         0.438074
 H         2.791233         0.168069         1.886538
 H         4.577686        -0.393814        -0.573713
 H         3.663708        -1.648570         0.390583
 H         1.686237        -0.630197        -2.878033
 H         3.451804         1.327161        -1.751387
 H         1.486939         1.397627        -1.911231
 H         2.558396         2.780915         1.070920
