19
Iteration:  1810charge 0 multiplicity 1
 C         0.196625        -0.674183         0.685812
 C         1.440701        -0.158227         0.078559
 C         2.799012        -0.028860         0.778409
 C         3.616194        -0.845223        -0.080626
 C         2.329990        -0.569653        -1.138981
 O         1.886754        -1.269769        -2.318286
 C         2.478211         0.968742        -1.311373
 C         2.064589         1.210453         0.063722
 O         1.548436         2.289295         0.750845
 H        -0.023269        -0.234166         1.643424
 H        -0.680114        -0.257718         0.063632
 H         0.126508        -1.806591         0.733045
 H         2.775824        -0.034013         1.885516
 H         4.671031        -0.635376        -0.327125
 H         3.468077        -1.876700         0.331514
 H         1.860046        -0.647893        -3.031136
 H         3.549940         1.263860        -1.536290
 H         1.773694         1.282010        -2.078063
 H         2.059768         2.367456         1.589613
