19
Iteration:  1335
 C         0.048178        -0.817536         0.397647
 C         1.318061        -0.118574         0.131429
 C         2.776931        -0.119131         0.940951
 C         3.426492        -1.010364        -0.173418
 C         2.305761        -0.486729        -1.080977
 O         1.838358        -1.138521        -2.206835
 C         2.744314         0.995759        -1.229182
 C         2.108741         1.143453         0.165138
 O         1.727337         2.493920         0.685189
 H        -0.313159        -0.243975         1.235478
 H        -0.589992        -0.825642        -0.502330
 H         0.053215        -1.816392         0.737781
 H         2.767626        -0.214899         2.021823
 H         4.489302        -0.935477        -0.203338
 H         3.217515        -2.125393         0.079943
 H         2.411604        -1.978274        -2.285737
 H         3.696592         1.383272        -1.541669
 H         1.989661         1.579930        -1.848590
 H         2.133187         3.033792        -0.052526
