19
Iteration:  3857charge 0 multiplicity 1
 C         0.022102        -0.724981         0.402604
 C         1.331784        -0.148393         0.137867
 C         2.661565        -0.150540         0.798673
 C         3.363163        -1.008062        -0.243060
 C         2.303022        -0.446197        -1.176105
 O         1.955429        -1.144789        -2.378148
 C         2.526489         1.127189        -1.216666
 C         2.086809         1.092066         0.232188
 O         2.009133         2.293941         0.985479
 H        -0.321077        -0.431534         1.401489
 H        -0.827493        -0.389429        -0.251926
 H         0.268145        -1.798133         0.149504
 H         2.848290        -0.196647         1.891714
 H         4.304152        -0.610166        -0.417332
 H         3.422528        -2.040633        -0.022635
 H         0.994240        -1.013089        -2.519224
 H         3.478697         1.519604        -1.629132
 H         1.650101         1.578931        -1.662841
 H         2.872763         2.674363         1.228804
