19
Iteration:  2725
 C         0.087757        -0.581832         0.764243
 C         1.383929        -0.177133         0.077230
 C         2.772007        -0.156203         0.793861
 C         3.570561        -0.896412        -0.309223
 C         2.406020        -0.461015        -1.208558
 O         1.943723        -1.288637        -2.290425
 C         2.483389         1.173655        -1.256046
 C         2.133038         1.073442         0.141794
 O         1.523925         2.281258         0.754486
 H        -0.463201        -1.268335         0.197753
 H         0.378419        -0.994230         1.731166
 H        -0.432023         0.260782         1.080573
 H         2.925883        -0.245168         1.835862
 H         4.582755        -0.630969        -0.638879
 H         3.457617        -1.995319        -0.356407
 H         2.746022        -1.743094        -2.590432
 H         3.475289         1.518059        -1.461055
 H         1.738351         1.685990        -1.858019
 H         1.713192         2.408784         1.694113
