19
Iteration:  2446
 C         0.078121        -0.724721         0.385527
 C         1.366855        -0.144771         0.085127
 C         2.748843        -0.102740         0.869101
 C         3.574188        -0.802861        -0.210188
 C         2.262500        -0.479617        -1.105984
 O         2.048004        -1.405642        -2.145270
 C         2.394706         1.126301        -1.213565
 C         2.060460         1.132994         0.211903
 O         1.762191         2.398041         0.694309
 H        -0.047844        -1.115028         1.453701
 H        -0.878807        -0.176360         0.278017
 H        -0.042720        -1.581621        -0.335067
 H         2.989428        -0.201328         1.970486
 H         4.549722        -0.373976        -0.638540
 H         3.618453        -1.885666        -0.080966
 H         1.119175        -1.648972        -2.075622
 H         3.362859         1.454120        -1.773799
 H         1.608006         1.516495        -1.888151
 H         2.589526         2.653868         1.153861
