19
Iteration:  3054charge 0 multiplicity 1
 C         0.131024        -0.904723         0.554990
 C         1.418488        -0.214996         0.130151
 C         2.776329        -0.167557         0.867038
 C         3.464626        -0.853468        -0.328631
 C         2.206773        -0.343824        -1.167346
 O         2.015191        -1.181617        -2.346593
 C         2.383980         1.153940        -1.343360
 C         2.111182         1.149293         0.242228
 O         1.779855         2.386573         0.891824
 H        -0.766574        -0.274146         0.774900
 H        -0.109177        -1.694158        -0.234043
 H         0.283335        -1.400239         1.550523
 H         3.113868        -0.148597         1.896888
 H         4.442698        -0.631572        -0.643283
 H         3.465378        -1.934449        -0.193276
 H         1.297915        -1.833155        -2.143489
 H         3.393415         1.391947        -1.799653
 H         1.431845         1.574187        -1.852984
 H         2.475374         2.433177         1.565401
