19
Iteration:  1481charge 0 multiplicity 1
 C         0.024372        -0.522723         0.525664
 C         1.428681        -0.128569         0.103640
 C         2.801840        -0.092997         0.936760
 C         3.440707        -0.968203        -0.118700
 C         2.361478        -0.526090        -1.121687
 O         1.965681        -1.316587        -2.256729
 C         2.528725         0.996428        -1.420216
 C         2.180218         1.181519         0.141326
 O         1.589731         2.223546         0.783202
 H        -0.182769         0.051498         1.475006
 H        -0.861029        -0.211280        -0.130766
 H         0.035025        -1.558561         0.662117
 H         3.048990         0.082017         2.005304
 H         4.509303        -0.735239        -0.291136
 H         3.238236        -2.031238         0.140246
 H         2.493082        -0.803351        -2.862185
 H         3.531771         1.389002        -1.718126
 H         1.729381         1.526178        -1.883426
 H         2.029417         3.065900         0.728783
