19
Iteration:  3409charge 0 multiplicity 1
 C         0.044752        -0.840264         0.510568
 C         1.430682        -0.318303         0.169133
 C         2.807115        -0.141133         0.754859
 C         3.397678        -0.887699        -0.423257
 C         2.230223        -0.351410        -1.152594
 O         2.002601        -1.121953        -2.320562
 C         2.362745         1.197709        -1.287363
 C         2.145317         1.160426         0.242028
 O         1.992808         2.211424         1.063025
 H        -0.471845        -0.233495         1.223843
 H        -0.588022        -0.743018        -0.358476
 H         0.201620        -1.870127         0.806373
 H         2.915938        -0.236346         1.864936
 H         4.408979        -0.673549        -0.905146
 H         3.252984        -2.020679        -0.330922
 H         1.107365        -0.779103        -2.600711
 H         3.276234         1.565126        -1.640773
 H         1.526285         1.671403        -1.680115
 H         1.098598         2.628045         1.099677
