19
Iteration:  3885charge 0 multiplicity 1
 C         0.014563        -0.605186         0.474206
 C         1.431102        -0.225941         0.155581
 C         2.742868        -0.174567         0.843396
 C         3.367577        -1.048268        -0.250886
 C         2.337365        -0.407164        -1.195069
 O         1.873078        -1.042872        -2.339431
 C         2.654766         1.123920        -1.364063
 C         2.185195         1.081638         0.198490
 O         1.770552         2.224595         0.964551
 H        -0.176034        -0.766368         1.565794
 H        -0.600216         0.204961         0.103939
 H        -0.209033        -1.497132        -0.078066
 H         2.706382        -0.316666         1.940306
 H         4.486799        -0.738126        -0.588101
 H         3.165035        -2.155290        -0.021320
 H         1.331968        -1.808066        -2.100008
 H         3.630765         1.452370        -1.782767
 H         1.790357         1.682931        -1.818432
 H         2.433350         2.677742         1.544658
