19
Iteration:  1491charge 0 multiplicity 1
 C         0.027494        -0.581264         0.507937
 C         1.383529        -0.092563         0.158214
 C         2.773917        -0.042120         0.846707
 C         3.455348        -0.936807        -0.171625
 C         2.326364        -0.500092        -1.125744
 O         1.961564        -1.322806        -2.196471
 C         2.646134         1.021623        -1.355772
 C         2.130656         1.128735         0.087176
 O         1.585490         2.278863         0.850995
 H        -0.223126        -0.076461         1.501855
 H        -0.821540        -0.314454        -0.242455
 H        -0.019201        -1.654896         0.756556
 H         2.982700        -0.056531         1.934946
 H         4.408429        -0.937350        -0.677933
 H         3.254657        -2.049198         0.035834
 H         2.619099        -1.322617        -2.875585
 H         3.669825         1.415463        -1.612068
 H         1.887224         1.344994        -2.086490
 H         2.215083         2.953746         0.548906
