19
Iteration:  3254charge 0 multiplicity 1
 C         0.125072        -0.870468         0.574103
 C         1.391245        -0.219868         0.134130
 C         2.752032        -0.099719         0.760055
 C         3.438357        -0.832677        -0.353628
 C         2.222555        -0.436220        -1.159189
 O         2.036195        -1.161666        -2.393985
 C         2.391465         1.203900        -1.305222
 C         2.022481         1.134678         0.209768
 O         1.918607         2.283500         1.023678
 H         0.228756        -1.952379         0.621539
 H        -0.414205        -0.518789         1.536768
 H        -0.684632        -0.678766        -0.190197
 H         2.930129        -0.366586         1.774260
 H         4.377705        -0.270572        -0.647420
 H         3.402995        -1.930643        -0.111909
 H         1.114542        -1.382159        -2.296510
 H         3.294651         1.588794        -1.834181
 H         1.557349         1.470511        -1.944429
 H         2.462741         2.116589         1.805037
