19
Iteration:  2610charge 0 multiplicity 1
 C         0.001639        -0.818732         0.456896
 C         1.393507        -0.265536         0.158846
 C         2.674140        -0.040613         0.797048
 C         3.487357        -0.775456        -0.252293
 C         2.319307        -0.425074        -1.190879
 O         2.116553        -1.406444        -2.212784
 C         2.406993         1.046526        -1.342707
 C         2.036146         1.220237         0.203284
 O         1.839403         2.432402         0.929855
 H        -0.778836        -0.023465         0.365703
 H        -0.393268        -1.635740        -0.133053
 H         0.044418        -1.403003         1.372880
 H         2.897497         0.011826         1.821678
 H         4.486418        -0.352098        -0.483902
 H         3.413261        -1.811374         0.043618
 H         1.217940        -1.777014        -2.224717
 H         3.281672         1.495615        -1.789501
 H         1.681299         1.525377        -1.971223
 H         2.688718         2.832230         0.679837
