19
Iteration:  3525
 C         0.009302        -0.637812         0.642400
 C         1.426679        -0.257837         0.207799
 C         2.795673        -0.200454         0.732278
 C         3.498306        -0.937952        -0.389719
 C         2.304140        -0.367221        -1.198303
 O         1.962236        -1.106139        -2.344248
 C         2.271767         1.163881        -1.308115
 C         2.122517         1.087714         0.170573
 O         1.914987         2.155128         0.984637
 H        -0.390909        -0.221070         1.618864
 H        -0.679438        -0.202266        -0.128307
 H        -0.124963        -1.730315         0.645221
 H         3.044510        -0.060509         1.835266
 H         4.465688        -0.564826        -0.601334
 H         3.592110        -1.958240        -0.252324
 H         2.512968        -0.668833        -3.068407
 H         3.192025         1.596354        -1.751750
 H         1.225788         1.440179        -1.625845
 H         1.648721         1.951060         1.908773
