19
Iteration:  2751
 C         0.060613        -0.585550         0.733922
 C         1.413897        -0.315272         0.181161
 C         2.752212        -0.048632         0.784563
 C         3.495699        -0.803165        -0.231139
 C         2.271893        -0.534233        -1.182605
 O         2.079913        -1.210136        -2.410014
 C         2.358435         1.011216        -1.373096
 C         2.116396         1.095311         0.084226
 O         1.675841         2.305782         0.907679
 H        -0.268523        -1.481780         0.125086
 H        -0.007090        -0.663478         1.879708
 H        -0.651222         0.309720         0.456632
 H         3.010160        -0.014820         1.889426
 H         4.448192        -0.331738        -0.605961
 H         3.437632        -1.913828        -0.113575
 H         2.823116        -1.809781        -2.359135
 H         3.391976         1.336756        -1.860740
 H         1.538073         1.512740        -1.957871
 H         2.206620         2.262289         1.722402
