19
Iteration:  3815charge 0 multiplicity 1
 C        -0.008341        -0.770919         0.465968
 C         1.319085        -0.094474         0.038878
 C         2.689215        -0.182855         0.820864
 C         3.419092        -0.975818        -0.285478
 C         2.251674        -0.450690        -1.174839
 O         1.849032        -1.140755        -2.302193
 C         2.510887         1.142228        -1.247600
 C         2.195158         1.126245         0.209764
 O         1.979689         2.284547         1.015757
 H        -0.788829        -0.110391         0.942312
 H        -0.493926        -1.037416        -0.512638
 H         0.191685        -1.747127         1.007492
 H         2.788673        -0.266749         1.921929
 H         4.460027        -0.553925        -0.770072
 H         3.284909        -2.054640        -0.034370
 H         2.468230        -1.120246        -3.033772
 H         3.431364         1.719345        -1.448883
 H         1.686901         1.582739        -1.798848
 H         2.842383         2.339565         1.495274
