19
Iteration:  1351
 C        -0.012891        -0.773235         0.393984
 C         1.411196        -0.129134         0.227925
 C         2.726030        -0.054833         0.935836
 C         3.389700        -0.959950        -0.121229
 C         2.281821        -0.499338        -1.070219
 O         1.876813        -1.160250        -2.269510
 C         2.623479         0.993938        -1.235841
 C         2.190592         1.225581         0.194435
 O         1.754764         2.376792         0.652925
 H        -0.803392        -0.498786         1.187998
 H        -0.390472        -0.812930        -0.676191
 H         0.230408        -1.906864         0.572579
 H         2.959810        -0.134831         2.018292
 H         4.325823        -0.730855        -0.720532
 H         3.388959        -1.986250         0.158528
 H         2.182034        -2.077549        -2.304007
 H         3.768047         1.040797        -1.402410
 H         2.204430         1.466775        -2.106091
 H         2.356814         3.125898         0.354536
