19
Iteration:  3713charge 0 multiplicity 1
 C        -0.007311        -0.446739         0.612463
 C         1.404460        -0.196574         0.114900
 C         2.761361        -0.234224         0.767612
 C         3.459380        -0.957664        -0.367450
 C         2.334417        -0.445019        -1.197916
 O         1.915575        -1.117923        -2.355767
 C         2.424958         1.105961        -1.311111
 C         2.155933         1.102904         0.250287
 O         1.806396         2.059011         1.090408
 H        -0.447262         0.425759         1.126549
 H        -0.683098        -0.572631        -0.282513
 H        -0.047378        -1.446327         1.116177
 H         3.072780        -0.299348         1.771155
 H         4.583425        -0.534287        -0.735619
 H         3.492214        -2.053534        -0.319181
 H         2.807211        -1.052759        -2.829392
 H         3.341285         1.467276        -1.752622
 H         1.586643         1.500532        -1.901456
 H         1.996086         2.926254         0.749481
