19
Iteration:  1026charge 0 multiplicity 1
 C         0.013665        -0.331001         0.288250
 C         1.417467        -0.261510         0.044228
 C         2.732839        -0.069177         0.945134
 C         3.379331        -0.985916        -0.072080
 C         2.390051        -0.500695        -1.120883
 O         2.015487        -1.213577        -2.275823
 C         2.638432         1.020108        -1.257859
 C         2.184222         1.094129         0.172303
 O         1.597600         2.195346         0.842260
 H        -0.250459         0.123004         1.217763
 H        -0.659355         0.094903        -0.516778
 H        -0.327678        -1.387919         0.456398
 H         2.803408        -0.232352         2.035283
 H         4.451967        -0.825230        -0.152375
 H         3.234553        -2.099187         0.199019
 H         1.915727        -2.216498        -2.130514
 H         3.581337         1.346853        -1.639272
 H         1.892999         1.511602        -1.927447
 H         2.132737         2.955620         0.517701
