19
Iteration:    15
 C        -0.257708        -0.426057         0.149061
 C         1.240877        -0.036046        -0.055538
 C         2.470654        -0.154221         0.924082
 C         3.401435        -1.006525        -0.000458
 C         2.439443        -0.547226        -1.083231
 O         2.149614        -1.407017        -2.123102
 C         2.815824         1.121673        -1.223948
 C         2.181474         1.121495         0.127041
 O         1.850654         2.319152         0.780362
 H        -0.997485         0.044875         1.027613
 H        -0.918157        -0.257197        -0.816731
 H        -0.186855        -1.483770         0.346484
 H         2.320165        -0.235711         2.012861
 H         4.519198        -0.693786        -0.232974
 H         3.336018        -2.039289         0.148060
 H         1.458747        -2.102688        -1.843355
 H         3.857903         1.508265        -1.315887
 H         2.053676         1.670995        -1.886838
 H         2.715346         2.687589         1.110276
