19
Iteration:  2506charge 0 multiplicity 1
 C         0.103410        -0.550903         0.619684
 C         1.446992        -0.210261         0.077575
 C         2.661867        -0.032126         0.874956
 C         3.552127        -0.859825        -0.135706
 C         2.405362        -0.556845        -1.114534
 O         1.978552        -1.335793        -2.256423
 C         2.455554         1.073904        -1.415646
 C         2.074535         1.160606         0.106066
 O         1.617279         2.208044         0.855891
 H         0.043482        -0.425606         1.693001
 H        -0.628903         0.037241         0.054806
 H        -0.070085        -1.614244         0.469909
 H         2.734304         0.104506         1.977319
 H         4.550799        -0.570453        -0.457858
 H         3.625989        -1.943170         0.098629
 H         2.354141        -0.987516        -3.126672
 H         3.434588         1.441711        -1.718694
 H         1.613278         1.292171        -2.110530
 H         2.060764         2.976173         0.497041
