19
Iteration:  1993
 C         0.134866        -0.719503         0.697541
 C         1.333141        -0.164047         0.057841
 C         2.689838         0.020674         0.826453
 C         3.489463        -0.865248        -0.185355
 C         2.376677        -0.565801        -1.144902
 O         2.072595        -1.319946        -2.315265
 C         2.467873         1.034777        -1.359767
 C         2.116682         1.173647         0.133741
 O         1.650861         2.324902         0.784063
 H         0.023897        -0.561907         1.809007
 H        -0.731690        -0.307877         0.113622
 H         0.229502        -1.887546         0.572715
 H         2.762636        -0.140625         1.870183
 H         4.442065        -0.435007        -0.542345
 H         3.609590        -1.895044         0.326547
 H         1.191069        -0.929546        -2.602207
 H         3.358894         1.576682        -1.715386
 H         1.507075         1.406885        -1.798595
 H         2.387516         2.689706         1.260827
