19
Iteration:   896charge 0 multiplicity 1
 C        -0.053867        -0.722029         0.437023
 C         1.391150        -0.211399         0.191149
 C         2.647350        -0.080645         0.914927
 C         3.407269        -1.116276         0.028038
 C         2.350285        -0.507292        -1.130727
 O         2.011366        -1.020422        -2.393756
 C         2.708028         0.965062        -1.200333
 C         2.084157         1.123672         0.120719
 O         1.771767         2.507391         0.642491
 H        -0.617050        -0.473329         1.299884
 H        -0.781242        -0.521413        -0.463766
 H        -0.002895        -1.780119         0.373773
 H         2.506090        -0.102609         2.004219
 H         4.466591        -1.067736        -0.174312
 H         3.048633        -2.195224         0.289250
 H         1.780232        -1.952710        -2.278981
 H         3.779217         1.251981        -1.282078
 H         1.934513         1.361434        -1.933840
 H         2.602959         2.866232         0.958538
