19
Iteration:  3755
 C         0.050051        -0.439411         0.564936
 C         1.442271        -0.234195         0.139957
 C         2.852070        -0.268685         0.831236
 C         3.490452        -0.967235        -0.383923
 C         2.285406        -0.433795        -1.233388
 O         1.891816        -1.076949        -2.358738
 C         2.603888         1.107855        -1.237755
 C         2.209668         1.043950         0.203718
 O         1.585231         2.123499         0.996009
 H        -0.396834         0.535241         0.812715
 H        -0.420871        -0.844666        -0.339340
 H        -0.126014        -1.145162         1.382268
 H         3.056273        -0.328339         1.870882
 H         4.470803        -0.739830        -0.721454
 H         3.510574        -2.041722        -0.276509
 H         0.908900        -1.074823        -2.328156
 H         3.637409         1.389335        -1.452265
 H         1.827136         1.658958        -1.814702
 H         2.348603         2.709757         1.164106
