19
Iteration:    85charge 0 multiplicity 1
 C        -0.106074        -0.451449         0.078908
 C         1.380299        -0.200402         0.151272
 C         2.641151        -0.081298         1.054248
 C         3.295970        -1.079215         0.020870
 C         2.383147        -0.500157        -1.030989
 O         2.050114        -1.286847        -2.156478
 C         2.693119         0.988139        -1.300343
 C         2.144848         1.133497         0.161758
 O         1.789906         2.383075         0.659374
 H        -0.679844        -0.141468         0.951073
 H        -0.440946         0.124338        -0.839291
 H        -0.245155        -1.614287        -0.066586
 H         2.578531        -0.065244         2.132534
 H         4.362353        -1.195402        -0.137139
 H         2.899487        -2.100295         0.405399
 H         2.627813        -0.955123        -2.883401
 H         3.687792         1.384061        -1.616220
 H         1.911698         1.306547        -1.971104
 H         2.326724         2.579530         1.465023
