19
Iteration:  4765charge 0 multiplicity 1
 C        -0.115604        -0.411366         0.470559
 C         1.354131        -0.150232         0.095331
 C         2.695438        -0.092982         0.894447
 C         3.373628        -0.997213        -0.159544
 C         2.323937        -0.459265        -1.137419
 O         2.121592        -1.415316        -2.243786
 C         2.584856         1.046515        -1.337416
 C         2.179522         1.162350         0.181228
 O         1.912265         2.247076         0.836540
 H        -0.802681        -0.876017        -0.326387
 H        -0.165188        -1.020574         1.421223
 H        -0.727745         0.497511         0.729330
 H         2.697593        -0.076072         1.972098
 H         4.331381        -0.877206        -0.510612
 H         3.132873        -2.099399         0.026748
 H         1.157757        -1.270848        -2.420561
 H         3.518083         1.312613        -1.698852
 H         1.837191         1.639221        -1.928374
 H         1.407911         2.851361         0.280981
