19
Iteration:  3568
 C         0.020541        -0.726410         0.597658
 C         1.345603        -0.346077         0.097295
 C         2.737916        -0.214840         0.769052
 C         3.473299        -0.843117        -0.349959
 C         2.251958        -0.407193        -1.224123
 O         1.960869        -1.123852        -2.386674
 C         2.427183         1.200803        -1.241842
 C         2.249030         1.126332         0.248599
 O         1.911255         2.299379         0.951726
 H        -0.036318        -0.929453         1.693441
 H        -0.648111         0.089996         0.281575
 H        -0.343235        -1.622844         0.108410
 H         3.012485        -0.376669         1.845441
 H         4.501772        -0.588703        -0.632408
 H         3.486286        -1.907749        -0.288910
 H         1.127347        -1.633918        -2.323498
 H         3.364922         1.604036        -1.558364
 H         1.562130         1.716072        -1.657257
 H         1.620879         1.946921         1.833707
