19
Iteration:  2719charge 0 multiplicity 1
 C         0.141106        -0.584703         0.778500
 C         1.416229        -0.253353         0.068798
 C         2.764057        -0.176437         0.763035
 C         3.544482        -0.908766        -0.297193
 C         2.357605        -0.418987        -1.214575
 O         1.920840        -1.265965        -2.237328
 C         2.533032         1.195742        -1.285034
 C         2.142116         1.084050         0.123186
 O         1.497371         2.291399         0.740421
 H        -0.513862        -1.267078         0.124391
 H         0.223913        -1.270945         1.692505
 H        -0.503802         0.383385         1.026726
 H         2.977494        -0.199913         1.862268
 H         4.633122        -0.700221        -0.469689
 H         3.534349        -2.016024        -0.302159
 H         2.776964        -1.696962        -2.583486
 H         3.631930         1.564103        -1.428630
 H         1.698753         1.731268        -1.788353
 H         1.710267         2.388401         1.674972
