19
Iteration:  3646
 C         0.090001        -0.825757         0.466313
 C         1.428125        -0.257870         0.146595
 C         2.675669        -0.217297         0.831696
 C         3.435749        -0.941104        -0.338077
 C         2.276925        -0.320732        -1.209220
 O         1.843554        -1.099166        -2.257358
 C         2.537954         1.143695        -1.255585
 C         2.168613         1.092257         0.218503
 O         1.853599         2.289112         0.942476
 H         0.005180        -0.845737         1.566981
 H        -0.779754        -0.182120         0.227761
 H        -0.023962        -1.812584         0.008626
 H         2.857652        -0.445034         1.910203
 H         4.549795        -0.526061        -0.605820
 H         3.338137        -2.019716        -0.168243
 H         1.220373        -0.516273        -2.698165
 H         3.510423         1.357005        -1.628950
 H         1.788215         1.636780        -1.897487
 H         2.678420         2.808434         1.115769
