19
Iteration:  1022charge 0 multiplicity 1
 C         0.012402        -0.319794         0.266262
 C         1.451823        -0.279745         0.064256
 C         2.735156        -0.099585         0.997788
 C         3.397296        -1.001155        -0.102531
 C         2.403762        -0.511105        -1.096656
 O         2.014488        -1.236534        -2.307927
 C         2.606337         1.055743        -1.223791
 C         2.164621         1.091045         0.178583
 O         1.607583         2.221764         0.815589
 H        -0.330738         0.142153         1.223570
 H        -0.569584         0.095098        -0.470449
 H        -0.390421        -1.329663         0.510234
 H         2.742239        -0.236933         2.080625
 H         4.499640        -0.818239        -0.277966
 H         3.050550        -1.931037         0.214955
 H         1.928919        -2.157221        -2.213894
 H         3.541929         1.491667        -1.674042
 H         1.812592         1.386019        -1.872687
 H         2.164131         2.937860         0.461671
