19
Iteration:  4636charge 0 multiplicity 1
 C        -0.118407        -0.496143         0.360131
 C         1.390842        -0.184638         0.145586
 C         2.704331        -0.057268         0.861649
 C         3.413720        -0.950073        -0.128151
 C         2.293914        -0.539246        -1.110332
 O         1.934961        -1.233393        -2.180116
 C         2.644004         0.987011        -1.304015
 C         2.113097         1.164579         0.139623
 O         1.934787         2.304634         0.798157
 H        -0.831143         0.206274         0.039390
 H        -0.389488        -1.399138        -0.171169
 H        -0.214904        -0.683831         1.409476
 H         3.002699        -0.150406         1.969019
 H         4.550951        -0.777169        -0.176657
 H         3.184457        -1.990928         0.206144
 H         2.131305        -2.168789        -2.031172
 H         3.693887         1.136512        -1.663210
 H         1.838041         1.266087        -2.101084
 H         1.483055         2.909070         0.172224
