19
Iteration:  1736charge 0 multiplicity 1
 C         0.079707        -0.819142         0.446409
 C         1.403855        -0.194017         0.209552
 C         2.757511         0.074836         0.843490
 C         3.446582        -0.817465        -0.139890
 C         2.305422        -0.510406        -1.179865
 O         2.072034        -1.368956        -2.241180
 C         2.335123         1.003878        -1.465928
 C         2.120786         1.228173         0.111136
 O         1.820081         2.343971         0.942234
 H        -0.479715        -0.493130         1.388067
 H        -0.592464        -0.501191        -0.386262
 H         0.243661        -1.823220         0.659790
 H         3.055374         0.151166         1.908089
 H         4.507569        -0.470413        -0.315328
 H         3.412112        -1.826440         0.170316
 H         1.054738        -1.482699        -2.250616
 H         3.339492         1.204311        -1.841534
 H         1.432814         1.430332        -1.903584
 H         2.031025         3.190264         0.569656
