19
Iteration:  3229charge 0 multiplicity 1
 C         0.062583        -0.887285         0.510862
 C         1.397671        -0.182084         0.196826
 C         2.755706        -0.116065         0.816336
 C         3.483543        -0.920281        -0.413944
 C         2.268563        -0.336519        -1.236845
 O         2.050029        -1.274365        -2.327042
 C         2.278474         1.221601        -1.232380
 C         2.151899         1.118285         0.309592
 O         1.866340         2.296705         0.983218
 H        -0.006149        -1.877244         0.072365
 H        -0.177029        -1.047087         1.597296
 H        -0.775436        -0.314572         0.163221
 H         2.996791        -0.160253         1.888472
 H         4.462220        -0.446411        -0.822082
 H         3.211777        -1.971859        -0.391607
 H         1.420698        -0.766744        -2.860891
 H         3.098717         1.531097        -1.800720
 H         1.354200         1.633485        -1.765367
 H         2.636143         2.860100         1.134279
