19
Iteration:   969
 C        -0.119016        -0.440767         0.383999
 C         1.321203        -0.193849         0.094094
 C         2.602032        -0.014055         0.924289
 C         3.443760        -0.938813        -0.097026
 C         2.334022        -0.517504        -1.158827
 O         2.132318        -1.248227        -2.324189
 C         2.570443         1.000519        -1.317195
 C         2.118864         1.072909         0.138638
 O         1.818527         2.227903         0.863732
 H        -0.513578         0.271935         1.135597
 H        -0.669136        -0.157355        -0.497076
 H        -0.447785        -1.512631         0.636815
 H         2.609982         0.029638         2.011029
 H         4.451713        -0.452095        -0.314910
 H         3.479384        -1.992826         0.117973
 H         2.191845        -2.154615        -2.090066
 H         3.609681         1.177263        -1.521588
 H         1.839485         1.525098        -1.912882
 H         2.638007         2.539794         1.292623
