19
Iteration:  4023
 C         0.017594        -0.698617         0.445904
 C         1.366963        -0.102941        -0.016800
 C         2.596898        -0.235886         0.882543
 C         3.352144        -0.993298        -0.143393
 C         2.266041        -0.427644        -1.175197
 O         1.805750        -1.095381        -2.261621
 C         2.689504         1.072175        -1.346376
 C         2.190162         1.157417         0.167891
 O         1.940357         2.299624         0.931252
 H        -0.100009        -1.824131         0.478027
 H        -0.416954        -0.300992         1.403733
 H        -0.693293        -0.333119        -0.352152
 H         2.687646        -0.110962         1.974672
 H         4.545643        -0.852001        -0.300212
 H         3.132194        -2.102611        -0.179397
 H         2.444308        -1.818340        -2.433261
 H         3.768457         1.335423        -1.622255
 H         1.908341         1.637616        -1.871431
 H         2.684615         2.428944         1.522787
