19
Iteration:  1162charge 0 multiplicity 1
 C         0.021333        -0.576422         0.379400
 C         1.341298        -0.029119         0.009199
 C         2.506517        -0.172101         0.920959
 C         3.372416        -1.015258        -0.064478
 C         2.422215        -0.516305        -1.211457
 O         1.987903        -1.258052        -2.210358
 C         2.719700         1.078161        -1.370972
 C         2.167778         1.148660         0.125184
 O         1.820431         2.308597         0.936261
 H        -0.470851        -0.080732         1.276769
 H        -0.691371        -0.360614        -0.446177
 H         0.207975        -1.601839         0.596023
 H         2.291235        -0.269517         1.999719
 H         4.332910        -0.610874        -0.266858
 H         3.333965        -2.137179         0.165042
 H         1.817688        -2.130685        -1.866559
 H         3.693525         1.503976        -1.647133
 H         2.074749         1.423337        -2.136798
 H         1.526006         3.019034         0.371842
