19
Iteration:  1101
 C        -0.098749        -0.666970         0.387264
 C         1.278397        -0.084249         0.164315
 C         2.578541        -0.267243         0.974355
 C         3.284872        -1.078472        -0.018966
 C         2.391346        -0.459362        -1.127036
 O         2.189415        -1.119935        -2.336930
 C         2.535819         1.014619        -1.307944
 C         2.123139         1.121199         0.164595
 O         1.975375         2.489731         0.654949
 H        -0.533305        -0.159028         1.227209
 H        -0.661446        -0.475673        -0.488543
 H        -0.161347        -1.817144         0.447944
 H         2.749666        -0.196473         2.072067
 H         4.376900        -0.833029        -0.257478
 H         3.367517        -2.078221         0.205279
 H         2.019630        -2.009129        -2.130747
 H         3.483671         1.508836        -1.626263
 H         1.581714         1.302427        -1.851172
 H         1.690975         2.473520         1.574774
