19
Iteration:  2779
 C        -0.031322        -0.652717         0.605039
 C         1.357935        -0.215776         0.167510
 C         2.825726        -0.040969         0.802416
 C         3.517815        -0.813783        -0.247912
 C         2.380872        -0.473847        -1.188482
 O         2.123841        -1.195561        -2.332729
 C         2.264850         1.053162        -1.342319
 C         2.033829         1.078781         0.158784
 O         1.807805         2.246072         0.904862
 H        -0.005433        -1.717346         0.494195
 H        -0.247302        -0.321621         1.593935
 H        -0.730212        -0.353186        -0.127144
 H         2.937224        -0.105333         1.856208
 H         4.395382        -0.360848        -0.659786
 H         3.379575        -1.880993        -0.063089
 H         1.930368        -2.112331        -1.998649
 H         2.885728         1.692905        -1.874731
 H         1.276031         1.239471        -1.767251
 H         2.738815         2.469351         1.040675
