19
Iteration:  2199
 C         0.126105        -0.837250         0.620255
 C         1.389583        -0.105898         0.082775
 C         2.768049        -0.042933         0.782020
 C         3.411280        -0.956500        -0.215379
 C         2.306182        -0.436421        -1.128390
 O         2.110931        -1.368937        -2.216641
 C         2.410101         1.123018        -1.331403
 C         2.238418         1.191736         0.150437
 O         1.621933         2.380686         0.817379
 H         0.065443        -0.785466         1.732649
 H        -0.733393        -0.304326         0.202262
 H         0.015159        -1.907401         0.459623
 H         2.773637        -0.272462         1.862348
 H         4.426069        -0.709436        -0.511139
 H         3.212446        -2.043996        -0.117173
 H         1.518125        -0.986844        -2.853523
 H         3.314334         1.643298        -1.771626
 H         1.378153         1.327522        -1.811209
 H         2.170555         3.193736         0.785182
