19
Iteration:    22
 C        -0.268843        -0.473069         0.093443
 C         1.235127        -0.025051        -0.052943
 C         2.462683        -0.172456         0.898521
 C         3.425766        -0.984604         0.007936
 C         2.400010        -0.466920        -1.124919
 O         2.137131        -1.482653        -2.099230
 C         2.808261         1.139259        -1.219637
 C         2.169957         1.139654         0.161213
 O         1.890464         2.329361         0.807748
 H        -0.744152         0.047365         0.863958
 H        -0.881479        -0.295500        -0.735149
 H        -0.302139        -1.538081         0.357731
 H         2.384431        -0.185955         1.981178
 H         4.418818        -0.613958        -0.117945
 H         3.446510        -2.087487         0.176002
 H         1.340848        -1.908490        -1.752560
 H         3.840108         1.469190        -1.322600
 H         2.161102         1.592226        -1.946795
 H         2.764224         2.660894         1.106663
