19
Iteration:  4231charge 0 multiplicity 1
 C         0.027507        -0.558126         0.345898
 C         1.395274        -0.036307         0.065622
 C         2.665500        -0.088853         0.874591
 C         3.361083        -1.098469        -0.081607
 C         2.360293        -0.541323        -1.105233
 O         1.726741        -1.235678        -2.258552
 C         2.719978         1.050544        -1.277377
 C         2.198121         1.160369         0.156344
 O         1.856031         2.266061         0.897217
 H        -0.813936         0.114182         0.365580
 H        -0.017180        -1.168087        -0.534143
 H         0.041565        -1.194541         1.211897
 H         2.448461        -0.173667         1.880169
 H         4.439083        -1.044210        -0.389861
 H         3.051523        -2.080948         0.164020
 H         1.999509        -0.946557        -3.141256
 H         3.812851         1.323836        -1.146598
 H         2.112121         1.632213        -1.915852
 H         2.519097         2.967588         0.667849
