19
Iteration:  2218charge 0 multiplicity 1
 C         0.163041        -0.703925         0.607576
 C         1.476091        -0.128285         0.157973
 C         2.749593        -0.020996         0.914832
 C         3.449461        -0.885575        -0.177541
 C         2.338615        -0.434131        -1.208547
 O         2.029684        -1.289744        -2.238634
 C         2.469315         1.138209        -1.410684
 C         2.070588         1.104289         0.120577
 O         1.595371         2.204104         0.775528
 H         0.045003        -0.592835         1.781276
 H        -0.741374        -0.433004         0.014118
 H         0.259415        -1.810076         0.506316
 H         3.081871         0.159226         1.920596
 H         4.547755        -0.901042        -0.432949
 H         3.149625        -1.905398         0.046746
 H         1.172603        -1.218324        -2.584975
 H         3.467235         1.510181        -1.762001
 H         1.666273         1.586077        -2.073543
 H         2.405218         2.710947         1.052466
