19
Iteration:  4400
 C        -0.092667        -0.409894         0.411812
 C         1.368734        -0.213071         0.069459
 C         2.645529        -0.103884         0.907023
 C         3.438583        -0.994167        -0.119947
 C         2.384463        -0.499534        -1.186274
 O         1.957232        -1.299579        -2.251866
 C         2.701351         0.974842        -1.314653
 C         2.126854         1.127887         0.189104
 O         1.869944         2.324518         0.864504
 H        -0.329085        -1.484784         0.356841
 H        -0.092358        -0.298232         1.482732
 H        -0.877337         0.214354        -0.018080
 H         2.857600         0.027007         2.027963
 H         4.470015        -0.848409        -0.545022
 H         3.186719        -2.102487         0.089795
 H         1.003590        -1.279068        -2.190249
 H         3.856500         0.985376        -1.489138
 H         1.899147         1.430520        -2.027267
 H         1.584688         2.939349         0.146100
