19
Iteration:   230charge 0 multiplicity 1
 C        -0.140961        -0.516160         0.034058
 C         1.305795        -0.091085         0.012194
 C         2.568988        -0.121054         0.953626
 C         3.401804        -0.932807         0.080854
 C         2.391819        -0.560277        -1.133243
 O         1.890083        -1.388561        -2.183903
 C         2.814754         1.017708        -1.279360
 C         2.152579         1.171874         0.155552
 O         1.863594         2.420921         0.857564
 H        -0.666079         0.023729         0.818227
 H        -0.558142        -0.141155        -0.886496
 H        -0.145972        -1.686947         0.234290
 H         2.628188         0.164230         2.021879
 H         4.400951        -0.553378        -0.111065
 H         3.500643        -2.061959         0.240964
 H         2.431626        -2.243273        -2.182761
 H         3.870748         1.301962        -1.349286
 H         2.249404         1.451284        -2.127757
 H         1.945104         2.186306         1.790007
