19
Iteration:  2171charge 0 multiplicity 1
 C         0.063278        -0.843812         0.618768
 C         1.386819        -0.226595         0.211777
 C         2.765480        -0.022361         0.863822
 C         3.446750        -0.786345        -0.167289
 C         2.293226        -0.485202        -1.126805
 O         2.046265        -1.362813        -2.300165
 C         2.434447         1.092600        -1.324034
 C         1.965852         1.110790         0.054481
 O         1.792084         2.384943         0.806812
 H         0.076003        -0.811207         1.714128
 H        -0.827678        -0.328066         0.192454
 H        -0.074907        -1.934026         0.321987
 H         3.076518         0.166329         1.913026
 H         4.401679        -0.279631        -0.470577
 H         3.622314        -1.876269        -0.217834
 H         1.879782        -0.771079        -3.069512
 H         3.422147         1.539974        -1.493552
 H         1.800864         1.562844        -2.044660
 H         2.591124         2.872998         0.594919
