19
Iteration:  4272charge 0 multiplicity 1
 C         0.013206        -0.621543         0.315859
 C         1.326887        -0.061431         0.143448
 C         2.626703        -0.115459         0.891382
 C         3.333449        -1.051552        -0.158350
 C         2.298031        -0.449966        -1.126788
 O         1.867812        -1.265762        -2.191364
 C         2.637143         1.037550        -1.239320
 C         2.121884         1.140670         0.156225
 O         2.002983         2.346982         0.772336
 H        -0.653088        -0.036454         1.019976
 H        -0.590733        -0.449949        -0.680817
 H        -0.082632        -1.736485         0.675751
 H         2.694995        -0.221524         2.013910
 H         4.426841        -0.926414        -0.251692
 H         3.237658        -2.158509         0.200120
 H         2.298297        -0.847783        -2.977064
 H         3.728702         1.284869        -1.571939
 H         1.976027         1.496439        -2.052522
 H         2.399478         2.332683         1.651580
