19
Iteration:  1454charge 0 multiplicity 1
 C         0.017191        -0.363587         0.552975
 C         1.448928        -0.252787         0.147896
 C         2.755862        -0.134125         0.924338
 C         3.508547        -0.920758        -0.146012
 C         2.417394        -0.545479        -1.119501
 O         2.108164        -1.291761        -2.283282
 C         2.451209         0.968316        -1.362898
 C         2.068595         1.090345         0.134083
 O         1.619902         2.253057         0.688082
 H        -0.052806         0.191905         1.499648
 H        -0.635949         0.147587        -0.167988
 H        -0.381456        -1.494194         0.715463
 H         2.818053        -0.075420         1.994075
 H         4.568552        -0.696304        -0.404990
 H         3.330120        -1.995084         0.137566
 H         1.359229        -0.750379        -2.519377
 H         3.250374         1.647561        -1.663881
 H         1.504151         1.442510        -1.817389
 H         2.241834         2.655362         1.281973
