19
Iteration:  4252charge 0 multiplicity 1
 C        -0.060395        -0.681136         0.295042
 C         1.383829        -0.128198         0.041412
 C         2.667166        -0.128611         0.891668
 C         3.296199        -1.066586        -0.070937
 C         2.323556        -0.389730        -1.078663
 O         1.783420        -1.234307        -2.183594
 C         2.751187         1.009537        -1.341817
 C         2.276135         1.166028         0.102998
 O         1.857679         2.393347         0.906501
 H        -0.701068         0.072659         0.776946
 H        -0.564516        -1.067356        -0.620542
 H         0.081072        -1.464987         1.083732
 H         2.865378        -0.057203         1.917853
 H         4.363899        -1.035649        -0.406687
 H         2.989294        -2.101368         0.102488
 H         2.060169        -0.913069        -3.057390
 H         3.908465         1.173905        -1.618222
 H         2.008061         1.474690        -1.989134
 H         2.729876         2.575415         1.286331
