19
Iteration:  2785charge 0 multiplicity 1
 C         0.004496        -0.665468         0.567947
 C         1.353293        -0.197073         0.135560
 C         2.802144        -0.107841         0.782810
 C         3.535361        -0.797833        -0.250051
 C         2.390646        -0.457932        -1.211322
 O         2.088136        -1.255812        -2.316341
 C         2.259527         1.052270        -1.290620
 C         2.060003         1.150177         0.229367
 O         1.790569         2.269519         0.904360
 H         0.094650        -1.820565         0.741372
 H        -0.324225        -0.294737         1.585171
 H        -0.711890        -0.544897        -0.359824
 H         2.916114        -0.059540         1.891500
 H         4.540439        -0.409238        -0.616313
 H         3.458498        -1.911070        -0.186928
 H         1.705255        -2.095186        -2.160149
 H         3.043895         1.760276        -1.867134
 H         1.283935         1.418805        -1.700378
 H         2.729366         2.596526         0.811740
