19
Iteration:   662
 C        -0.075991        -0.646715         0.255813
 C         1.287797        -0.188278         0.139782
 C         2.530795        -0.222216         0.990672
 C         3.377887        -1.035270        -0.046774
 C         2.284133        -0.527061        -1.073060
 O         2.143531        -1.102034        -2.306265
 C         2.596259         0.969028        -1.242264
 C         2.086593         1.124468         0.237461
 O         2.025816         2.536482         0.656751
 H        -0.634904        -0.225100         1.162380
 H        -0.581428        -0.212895        -0.651215
 H        -0.183481        -1.793552         0.208139
 H         2.462248        -0.451085         2.058613
 H         4.382380        -0.690798        -0.261101
 H         3.326447        -2.108199         0.215282
 H         2.236510        -2.119890        -2.260712
 H         3.655423         1.243585        -1.517396
 H         1.914494         1.474866        -1.909167
 H         1.334133         2.830823         1.314416
