19
Iteration:  1958charge 0 multiplicity 1
 C         0.133326        -0.823965         0.643725
 C         1.399681        -0.156705         0.114427
 C         2.731184         0.008582         0.781325
 C         3.479433        -0.843434        -0.214625
 C         2.353696        -0.505596        -1.195990
 O         1.964183        -1.371262        -2.146851
 C         2.584278         1.197700        -1.354336
 C         2.047391         1.164929         0.059116
 O         1.657261         2.299781         0.751426
 H        -0.192506        -0.668197         1.752287
 H        -0.771341        -0.510089         0.044446
 H         0.128054        -1.931456         0.383866
 H         2.918617         0.167721         1.861736
 H         4.556327        -0.567084        -0.417888
 H         3.501297        -1.926670         0.119200
 H         0.997626        -1.212723        -2.331773
 H         3.636259         1.563377        -1.459067
 H         2.038015         1.858283        -2.073114
 H         2.152179         2.442350         1.546228
