19
Iteration:   926charge 0 multiplicity 1
 C         0.058777        -0.645346         0.457023
 C         1.300704        -0.065541        -0.031160
 C         2.578890        -0.108275         0.836215
 C         3.268605        -1.003150        -0.088142
 C         2.280683        -0.417962        -1.156855
 O         2.104345        -1.212690        -2.234380
 C         2.755895         1.006951        -1.284009
 C         2.223886         1.185266         0.140837
 O         1.739349         2.334727         0.777218
 H        -0.321900        -0.340575         1.453526
 H        -0.812224        -0.645346        -0.193073
 H         0.268455        -1.778645         0.623799
 H         2.424867        -0.227874         1.927300
 H         4.357320        -0.901515        -0.256145
 H         2.843807        -1.985789         0.134600
 H         1.803321        -2.077395        -1.947744
 H         3.793301         1.169472        -1.574024
 H         2.100163         1.588955        -1.940892
 H         2.096228         2.409762         1.698720
