19
Iteration:  3248
 C         0.104343        -0.861249         0.542610
 C         1.428655        -0.209607         0.155966
 C         2.772329        -0.172870         0.765277
 C         3.396517        -0.812577        -0.384751
 C         2.176238        -0.438569        -1.175977
 O         2.080522        -1.184978        -2.378688
 C         2.364841         1.160857        -1.320274
 C         2.043484         1.151949         0.224364
 O         1.901905         2.349674         1.042588
 H         0.173610        -1.987925         0.530930
 H        -0.201820        -0.787151         1.566073
 H        -0.648085        -0.585203        -0.203393
 H         3.031150        -0.342544         1.839258
 H         4.352470        -0.383047        -0.593004
 H         3.315651        -1.873889        -0.150681
 H         1.117622        -1.355074        -2.401763
 H         3.317623         1.666130        -1.675001
 H         1.434728         1.533141        -1.808066
 H         2.615423         2.246344         1.694811
