19
Iteration:  3410
 C         0.046656        -0.844891         0.513563
 C         1.435136        -0.317990         0.167964
 C         2.803433        -0.143017         0.759948
 C         3.404685        -0.891263        -0.424841
 C         2.234776        -0.350937        -1.152705
 O         1.997376        -1.114135        -2.326783
 C         2.358037         1.185802        -1.288614
 C         2.154129         1.159704         0.244278
 O         1.986507         2.217653         1.068310
 H        -0.489629        -0.199083         1.184241
 H        -0.572857        -0.732629        -0.365236
 H         0.220471        -1.880791         0.798406
 H         2.921067        -0.215347         1.857854
 H         4.417277        -0.691856        -0.878209
 H         3.216668        -2.017550        -0.309859
 H         1.084567        -0.798401        -2.599989
 H         3.280280         1.556985        -1.661159
 H         1.506744         1.665336        -1.676155
 H         1.107956         2.659779         1.069556
