19
Iteration:  3670
 C        -0.007374        -0.703661         0.494668
 C         1.379535        -0.128930         0.170035
 C         2.752330        -0.230969         0.801187
 C         3.449379        -0.927443        -0.336208
 C         2.278712        -0.415304        -1.230176
 O         1.971557        -1.118988        -2.418175
 C         2.444958         1.142543        -1.214824
 C         2.132219         1.087657         0.224038
 O         1.925998         2.221817         1.041872
 H        -0.227368        -0.414143         1.510404
 H        -0.948011        -0.354193        -0.008268
 H         0.117561        -1.814210         0.403890
 H         2.887949        -0.293809         1.853900
 H         4.535139        -0.613744        -0.542975
 H         3.310349        -1.968657        -0.161983
 H         1.172702        -1.665009        -2.239796
 H         3.304082         1.718617        -1.554952
 H         1.572685         1.458777        -1.798050
 H         2.422302         2.988175         0.765587
