19
Iteration:  4513
 C        -0.030380        -0.524312         0.424775
 C         1.358641        -0.177587         0.097389
 C         2.659480        -0.094778         0.922197
 C         3.436951        -1.113514        -0.093618
 C         2.412499        -0.494412        -1.091413
 O         1.791631        -1.246769        -2.207229
 C         2.695980         1.037780        -1.266926
 C         2.197955         1.141897         0.098965
 O         1.842754         2.356035         0.767771
 H        -0.748738        -0.661481        -0.334480
 H        -0.128832        -1.319127         1.149432
 H        -0.384199         0.409838         0.885664
 H         2.819181         0.104971         2.014539
 H         4.511127        -0.975961        -0.316066
 H         3.171673        -2.245234        -0.026001
 H         2.524752        -1.334018        -2.833277
 H         3.763748         1.263577        -1.485075
 H         1.862729         1.433004        -2.056596
 H         1.342232         2.845778         0.055631
