19
Iteration:  2711charge 0 multiplicity 1
 C         0.173677        -0.632390         0.760517
 C         1.500229        -0.333850         0.093819
 C         2.776535        -0.176971         0.782422
 C         3.503516        -0.924946        -0.299235
 C         2.278199        -0.368463        -1.241104
 O         1.897971        -1.225129        -2.173596
 C         2.620612         1.181012        -1.338351
 C         2.093624         1.157145         0.174235
 O         1.493093         2.257169         0.706152
 H        -0.537599        -1.006507        -0.029615
 H         0.185447        -1.347531         1.537394
 H        -0.343830         0.297636         0.952171
 H         2.936299        -0.179724         1.893915
 H         4.517652        -0.526508        -0.390993
 H         3.411117        -1.964290         0.063899
 H         2.659577        -1.609690        -2.708724
 H         3.532984         1.632567        -1.618059
 H         1.860727         1.691906        -1.932388
 H         1.808502         2.252375         1.625875
