19
Iteration:  2934
 C         0.026544        -0.591477         0.712390
 C         1.317691        -0.199893         0.103929
 C         2.698652        -0.025447         0.728289
 C         3.562683        -0.787275        -0.306355
 C         2.283495        -0.511377        -1.182675
 O         2.149018        -1.208367        -2.409247
 C         2.206311         1.102560        -1.319646
 C         2.101162         1.148188         0.124214
 O         1.845093         2.113787         0.988168
 H        -0.008477        -0.162180         1.715604
 H        -0.877278        -0.295208         0.066003
 H        -0.092074        -1.692137         0.786721
 H         2.827831         0.109663         1.840174
 H         4.550988        -0.359129        -0.540808
 H         4.008612        -1.776605        -0.101988
 H         2.221871        -2.161128        -2.180728
 H         3.011010         1.530692        -1.898869
 H         1.245147         1.126600        -1.884966
 H         2.506177         2.144289         1.716175
