19
Iteration:  3543charge 0 multiplicity 1
 C        -0.019152        -0.616993         0.580922
 C         1.330085        -0.269223         0.223403
 C         2.829761        -0.238018         0.805045
 C         3.514268        -0.786392        -0.393905
 C         2.238088        -0.465551        -1.179375
 O         2.032216        -1.177027        -2.447063
 C         2.303489         1.105745        -1.270320
 C         2.075361         1.028983         0.262185
 O         1.980345         2.271046         0.978954
 H        -0.048198        -0.551588         1.678360
 H        -0.757003         0.012982         0.102269
 H        -0.222837        -1.668741         0.375104
 H         3.106939        -0.268529         1.831806
 H         4.501581        -0.366296        -0.854182
 H         3.740513        -1.914670        -0.407331
 H         1.585414        -0.600798        -3.121274
 H         3.240967         1.621308        -1.470172
 H         1.437462         1.561395        -1.754957
 H         1.618065         2.135204         1.884609
