19
Iteration:  2817charge 0 multiplicity 1
 C         0.113839        -0.831201         0.485420
 C         1.471351        -0.228468         0.137916
 C         2.777569        -0.058918         0.836736
 C         3.478704        -0.775566        -0.298595
 C         2.317745        -0.414398        -1.179708
 O         1.854152        -1.197215        -2.202405
 C         2.554900         1.114957        -1.357945
 C         2.125394         1.138349         0.207604
 O         1.692410         2.252525         0.926039
 H         0.166234        -1.682732         1.186990
 H        -0.708388        -0.181616         0.852508
 H        -0.435469        -1.203081        -0.444551
 H         3.049506        -0.123149         1.910322
 H         4.544557        -0.598882        -0.587090
 H         3.603973        -1.869330        -0.225519
 H         1.245460        -1.982737        -2.105731
 H         3.632795         1.322710        -1.617725
 H         1.739848         1.589932        -1.927320
 H         1.997765         3.084787         0.520557
