19
Iteration:  3695charge 0 multiplicity 1
 C        -0.025688        -0.593565         0.563236
 C         1.434718        -0.248511         0.146660
 C         2.818273        -0.172815         0.813004
 C         3.423883        -0.923050        -0.340418
 C         2.189109        -0.456219        -1.233248
 O         1.985889        -1.091130        -2.418226
 C         2.424709         1.130745        -1.335362
 C         2.132700         1.051151         0.178690
 O         1.890875         2.173682         1.168823
 H        -0.335045         0.213000         1.252636
 H        -0.748056        -0.362379        -0.247071
 H        -0.254321        -1.642756         0.871256
 H         2.938010        -0.047197         1.912554
 H         4.371227        -0.675251        -0.626172
 H         3.209600        -1.980536        -0.198559
 H         2.466357        -1.956026        -2.565502
 H         3.392951         1.585306        -1.737570
 H         1.631444         1.637835        -1.905142
 H         2.187220         3.022513         0.841144
