19
Iteration:  3852
 C         0.028189        -0.754139         0.417906
 C         1.332959        -0.160941         0.144088
 C         2.650723        -0.183017         0.844245
 C         3.340164        -0.957900        -0.231462
 C         2.249689        -0.417613        -1.203541
 O         1.972966        -1.164889        -2.359756
 C         2.529482         1.121911        -1.247549
 C         2.092527         1.111229         0.204397
 O         2.036789         2.290953         0.991363
 H        -0.457278        -0.466556         1.364369
 H        -0.671185        -0.468907        -0.371156
 H         0.122575        -1.815466         0.267921
 H         2.741147        -0.209095         1.918721
 H         4.426223        -0.684659        -0.677486
 H         3.481858        -2.078265        -0.031469
 H         1.081066        -0.837608        -2.570081
 H         3.505422         1.655684        -1.460692
 H         1.669648         1.680395        -1.752008
 H         2.921942         2.664414         1.183347
