19
Iteration:  2821charge 0 multiplicity 1
 C         0.110641        -0.836891         0.478578
 C         1.434538        -0.166725         0.130747
 C         2.796269        -0.031046         0.841235
 C         3.538986        -0.796972        -0.313746
 C         2.326076        -0.419217        -1.184502
 O         1.821983        -1.169369        -2.204409
 C         2.561087         1.084760        -1.319717
 C         2.119841         1.111795         0.194942
 O         1.682772         2.224780         0.911781
 H         0.234636        -1.718668         1.212730
 H        -0.693262        -0.155403         0.800357
 H        -0.391139        -1.309368        -0.429747
 H         3.117513        -0.057183         1.848689
 H         4.588458        -0.559234        -0.516303
 H         3.425986        -1.921899        -0.096741
 H         1.288286        -1.911489        -1.961770
 H         3.642428         1.303740        -1.585804
 H         1.799783         1.579526        -1.950277
 H         1.916020         3.092933         0.545825
