19
Iteration:  2200charge 0 multiplicity 1
 C         0.125751        -0.833411         0.619936
 C         1.386402        -0.109165         0.082339
 C         2.776092        -0.043205         0.787436
 C         3.406593        -0.958909        -0.208717
 C         2.308894        -0.428427        -1.130085
 O         2.109270        -1.370987        -2.219871
 C         2.410584         1.130113        -1.334241
 C         2.242172         1.190584         0.140833
 O         1.618811         2.371582         0.814371
 H         0.071123        -0.774928         1.692855
 H        -0.744964        -0.308467         0.218561
 H         0.036796        -1.910568         0.469299
 H         2.790450        -0.258698         1.883418
 H         4.410570        -0.698119        -0.499726
 H         3.209296        -2.055980        -0.106230
 H         1.500174        -0.975624        -2.811175
 H         3.308074         1.633459        -1.771673
 H         1.386363         1.341518        -1.769435
 H         2.167908         3.198133         0.804030
