19
Iteration:  3396charge 0 multiplicity 1
 C         0.041330        -0.807056         0.536160
 C         1.341131        -0.175466         0.150773
 C         2.799825        -0.160761         0.774259
 C         3.440668        -0.826746        -0.432924
 C         2.212608        -0.366973        -1.252567
 O         1.986270        -1.208483        -2.277664
 C         2.399621         1.262390        -1.229429
 C         2.048934         1.044791         0.189097
 O         2.040011         2.192014         1.067394
 H        -0.259192        -0.408101         1.496073
 H        -0.754869        -0.678279        -0.213357
 H         0.050404        -1.888448         0.680741
 H         3.204927        -0.242513         1.815004
 H         4.421702        -0.320043        -0.757609
 H         3.523650        -1.930646        -0.338612
 H         1.501608        -0.902887        -3.038929
 H         3.352010         1.692835        -1.452580
 H         1.679387         1.696437        -1.888769
 H         1.119913         2.173964         1.355963
