19
Iteration:  2979charge 0 multiplicity 1
 C         0.097524        -0.659395         0.571668
 C         1.471899        -0.197945         0.163884
 C         2.959098        -0.100735         0.796560
 C         3.511366        -0.918710        -0.352118
 C         2.297355        -0.438329        -1.188030
 O         1.860720        -1.115400        -2.316429
 C         2.457980         1.085152        -1.215910
 C         2.143830         1.101142         0.238704
 O         1.549382         2.192384         0.875917
 H        -0.469035         0.175625         1.004926
 H        -0.502368        -1.126496        -0.268654
 H         0.148819        -1.506194         1.281154
 H         3.130283        -0.154306         1.843520
 H         4.495950        -0.735865        -0.865170
 H         3.742550        -2.004868        -0.282131
 H         2.113577        -2.040226        -2.311157
 H         3.411357         1.538641        -1.462003
 H         1.660428         1.759656        -1.598434
 H         2.084533         2.982607         0.641361
