19
Iteration:  1142charge 0 multiplicity 1
 C        -0.077259        -0.695005         0.344772
 C         1.284781        -0.193197         0.018790
 C         2.596940        -0.047794         0.919358
 C         3.364383        -0.977882        -0.040042
 C         2.304012        -0.475859        -1.123012
 O         2.026536        -1.202401        -2.351913
 C         2.656282         1.015967        -1.212627
 C         2.139537         1.187493         0.206839
 O         2.001088         2.368170         0.799910
 H        -0.526774        -0.083706         1.197157
 H        -0.754327        -0.482155        -0.451900
 H        -0.252920        -1.733356         0.711194
 H         2.784492         0.014791         2.018358
 H         4.476998        -0.819776        -0.077113
 H         3.073015        -1.972448         0.323130
 H         2.323245        -2.159694        -2.162992
 H         3.689678         1.174845        -1.609088
 H         2.055190         1.461659        -1.973745
 H         1.133623         2.763758         0.594673
