19
Iteration:   378charge 0 multiplicity 1
 C        -0.221811        -0.209772         0.303699
 C         1.231515        -0.019193         0.098945
 C         2.539763        -0.163405         0.898652
 C         3.368405        -1.035909         0.026259
 C         2.438416        -0.533466        -1.132116
 O         2.252214        -1.434620        -2.209953
 C         2.757199         1.007054        -1.382073
 C         2.200529         1.151083         0.066232
 O         1.769760         2.155586         0.920743
 H        -0.623237         0.494769         1.101541
 H        -0.835110        -0.148773        -0.712407
 H        -0.382873        -1.239516         0.517653
 H         2.856150         0.151434         1.901682
 H         4.443396        -0.806639        -0.134839
 H         3.198074        -2.102730         0.213021
 H         2.138694        -0.751469        -2.936048
 H         3.764606         1.445031        -1.547374
 H         2.211884         1.508128        -2.190113
 H         0.780040         2.114288         0.979180
