19
Iteration:  4983charge 0 multiplicity 1
 C        -0.037216        -0.442651         0.417556
 C         1.380287        -0.216114         0.160129
 C         2.644912        -0.038617         0.887572
 C         3.415158        -0.985827        -0.098423
 C         2.295550        -0.547225        -1.134728
 O         1.946852        -1.368973        -2.201636
 C         2.643205         0.989740        -1.338097
 C         2.175957         1.107831         0.112126
 O         1.897786         2.353158         0.826498
 H        -0.657568         0.091615        -0.305248
 H        -0.214742        -1.516110         0.190199
 H        -0.190968        -0.042787         1.343651
 H         2.625324         0.046077         2.037651
 H         4.515672        -0.723654        -0.413982
 H         3.487110        -2.167192         0.131461
 H         1.624040        -0.884214        -2.980633
 H         3.716233         1.140700        -1.586585
 H         2.013163         1.681334        -2.008393
 H         1.019344         2.784016         0.640353
