19
Iteration:  4205charge 0 multiplicity 1
 C        -0.111944        -0.488231         0.416685
 C         1.378281        -0.173364         0.139682
 C         2.654402        -0.225433         0.853063
 C         3.369746        -1.036542        -0.200292
 C         2.367664        -0.516283        -1.110569
 O         1.852761        -1.139464        -2.221353
 C         2.699314         1.014123        -1.326005
 C         2.267604         1.094044         0.239622
 O         1.805433         2.298605         0.830597
 H        -0.701979         0.355568        -0.058654
 H        -0.379868        -1.407471        -0.194523
 H        -0.290974        -0.528909         1.557634
 H         2.913795        -0.236872         1.981882
 H         4.429444        -0.903505        -0.363796
 H         3.089941        -2.162442        -0.050364
 H         2.367027        -1.202815        -3.036184
 H         3.776083         1.282295        -1.354784
 H         1.978782         1.786302        -1.836417
 H         2.437301         3.019669         0.579490
