19
Iteration:  3870
 C        -0.021042        -0.687809         0.404110
 C         1.357419        -0.128017         0.042889
 C         2.729912        -0.204587         0.864962
 C         3.458310        -1.007960        -0.225067
 C         2.297160        -0.441094        -1.178132
 O         1.921921        -1.079415        -2.373845
 C         2.487801         1.066922        -1.249498
 C         2.234393         1.179613         0.230012
 O         1.872433         2.284325         0.989342
 H        -0.079291        -0.750703         1.514770
 H        -0.866081        -0.141243        -0.065537
 H        -0.239081        -1.795858         0.255024
 H         2.898145        -0.243588         1.914789
 H         4.546494        -1.006041        -0.424757
 H         3.147498        -2.049265        -0.107987
 H         1.002436        -1.374084        -2.273517
 H         3.468198         1.385439        -1.585318
 H         1.774782         1.428038        -1.944198
 H         2.771680         2.526713         1.306344
