19
Iteration:  4357
 C        -0.006225        -0.344244         0.513364
 C         1.367559        -0.122654         0.051775
 C         2.689353        -0.157281         0.864795
 C         3.349578        -1.102975        -0.211812
 C         2.374701        -0.529175        -1.138106
 O         2.003573        -1.315491        -2.251528
 C         2.665572         0.948483        -1.323613
 C         2.227597         1.115885         0.167018
 O         1.775376         2.380019         0.863719
 H        -0.082899        -1.172805         1.182809
 H        -0.499636         0.544684         0.840518
 H        -0.527583        -0.505421        -0.413868
 H         2.900853        -0.258396         1.980964
 H         4.393560        -0.894289        -0.168504
 H         3.060739        -2.096820         0.254346
 H         1.484617        -0.677408        -2.764653
 H         3.738482         1.207403        -1.517113
 H         1.903049         1.492719        -2.029963
 H         0.818380         2.199007         0.870696
