19
Iteration:  2626
 C        -0.048104        -0.883693         0.430536
 C         1.319124        -0.156615         0.100011
 C         2.766776        -0.081854         0.892033
 C         3.494471        -0.791985        -0.295500
 C         2.257422        -0.482390        -1.153130
 O         2.130543        -1.479594        -2.149603
 C         2.355749         1.200625        -1.322707
 C         2.146092         1.159717         0.183119
 O         1.854865         2.450573         0.896601
 H        -0.868583        -0.163204         0.165241
 H        -0.073322        -1.704931        -0.342768
 H        -0.130197        -1.236940         1.491385
 H         2.883707        -0.201965         2.028556
 H         4.488837        -0.434632        -0.630188
 H         3.708473        -1.896073        -0.297933
 H         1.241365        -1.301583        -2.410482
 H         3.352222         1.662099        -1.675328
 H         1.370431         1.530482        -1.779571
 H         2.427079         3.214252         0.607700
