19
Iteration:  3969charge 0 multiplicity 1
 C        -0.095620        -0.405044         0.471124
 C         1.362690        -0.240138         0.162026
 C         2.734340        -0.235871         0.821615
 C         3.388845        -0.929884        -0.270083
 C         2.326849        -0.495441        -1.164421
 O         2.080716        -1.173432        -2.386465
 C         2.473856         1.030088        -1.286321
 C         2.225766         1.117658         0.231360
 O         1.870696         2.194724         0.970892
 H        -0.396739        -0.960220         1.416253
 H        -0.659917         0.546439         0.775102
 H        -0.630618        -0.776734        -0.441005
 H         2.974923        -0.278533         1.872926
 H         4.344915        -0.914288        -0.609162
 H         3.232009        -1.988269        -0.163993
 H         1.131481        -1.135183        -2.630410
 H         3.345797         1.609337        -1.683366
 H         1.609009         1.328210        -1.862774
 H         2.496922         2.697067         1.503335
