19
Iteration:  1518charge 0 multiplicity 1
 C         0.062927        -0.748846         0.441406
 C         1.370193        -0.148282         0.069005
 C         2.682173        -0.060343         0.848301
 C         3.503640        -0.872923        -0.117926
 C         2.316015        -0.451405        -1.172334
 O         1.849066        -1.348551        -2.186880
 C         2.636853         1.116794        -1.300441
 C         2.074852         1.145863         0.079109
 O         1.723684         2.367003         0.810859
 H        -0.105351        -0.207258         1.344421
 H        -0.721786        -0.628474        -0.238964
 H         0.048318        -1.740587         0.849444
 H         2.852940        -0.005087         1.907134
 H         4.550845        -0.728486        -0.464433
 H         3.416912        -1.909692         0.037212
 H         2.285049        -2.174778        -2.079873
 H         3.672351         1.437579        -1.321506
 H         2.096535         1.744765        -2.034701
 H         2.622767         2.722751         0.958597
