19
Iteration:  1068
 C        -0.043041        -0.527572         0.387803
 C         1.316148        -0.133930        -0.016581
 C         2.591625        -0.084597         0.847984
 C         3.393549        -0.971631        -0.043611
 C         2.374348        -0.485484        -1.167659
 O         2.083885        -1.277509        -2.291121
 C         2.739657         1.002831        -1.286230
 C         2.069886         1.136134         0.113281
 O         1.743070         2.316306         0.861169
 H        -0.254704        -0.059244         1.334974
 H        -0.740238        -0.085707        -0.251961
 H        -0.303218        -1.608694         0.578573
 H         2.595348        -0.031882         1.958856
 H         4.420121        -0.649928        -0.316952
 H         3.253435        -1.950915         0.284225
 H         1.686815        -2.079113        -1.910214
 H         3.793082         1.262747        -1.276523
 H         2.279808         1.636802        -2.057678
 H         2.389667         2.291235         1.614657
