19
Iteration:  1183charge 0 multiplicity 1
 C        -0.029547        -0.479838         0.314423
 C         1.386179        -0.102300         0.008562
 C         2.668681        -0.101537         0.852382
 C         3.433086        -0.979891        -0.077344
 C         2.354971        -0.465196        -1.146637
 O         2.010178        -1.310567        -2.182557
 C         2.710304         1.035800        -1.307993
 C         2.172147         1.142275         0.072658
 O         1.665020         2.201736         0.942972
 H        -0.176814         0.098303         1.264771
 H        -0.840367        -0.067703        -0.371421
 H         0.021584        -1.495980         0.538514
 H         2.775806         0.042691         1.938123
 H         4.468663        -0.878723        -0.281878
 H         3.007083        -2.031982        -0.080933
 H         1.292153        -1.873557        -1.854455
 H         3.775693         1.256156        -1.464086
 H         2.111674         1.589877        -2.028204
 H         2.071043         3.076330         0.693047
