19
Iteration:  1740charge 0 multiplicity 1
 C         0.097101        -0.815208         0.436586
 C         1.387748        -0.200562         0.189014
 C         2.763030         0.062655         0.849299
 C         3.450517        -0.808978        -0.121304
 C         2.308872        -0.485499        -1.152782
 O         2.066187        -1.398847        -2.258827
 C         2.321288         1.000008        -1.444027
 C         2.140562         1.219581         0.116551
 O         1.805439         2.374416         0.943529
 H        -0.373968        -0.376233         1.374832
 H        -0.663594        -0.607609        -0.307372
 H         0.226402        -1.965203         0.602616
 H         3.110479         0.065696         1.860953
 H         4.496462        -0.516466        -0.335130
 H         3.325163        -1.910557         0.083199
 H         1.129035        -1.379109        -2.279622
 H         3.305576         1.295675        -1.899832
 H         1.400296         1.477871        -1.934728
 H         2.134107         3.212954         0.516125
