19
Iteration:  4015
 C        -0.025221        -0.655281         0.425158
 C         1.295878        -0.158798         0.027797
 C         2.586608        -0.185567         0.850780
 C         3.353009        -1.007969        -0.239975
 C         2.334143        -0.349550        -1.204162
 O         1.865068        -1.101783        -2.258187
 C         2.625189         1.017603        -1.286938
 C         2.212756         1.145445         0.138732
 O         1.966711         2.278803         0.948710
 H        -0.010016        -1.743460         0.786221
 H        -0.389376        -0.095838         1.357558
 H        -0.698433        -0.506972        -0.442338
 H         2.750733        -0.042952         2.005654
 H         4.370712        -0.815888        -0.228066
 H         3.372528        -2.048032         0.071676
 H         2.231278        -2.013316        -2.272463
 H         3.610684         1.270076        -1.623047
 H         1.888945         1.684801        -1.769208
 H         2.629191         2.390342         1.632396
