19
Iteration:  1808
 C         0.173497        -0.682527         0.680486
 C         1.435079        -0.163761         0.081782
 C         2.787799        -0.001648         0.776938
 C         3.606738        -0.844356        -0.103016
 C         2.345035        -0.578064        -1.118186
 O         1.884470        -1.270335        -2.318405
 C         2.495192         0.961326        -1.319678
 C         2.086601         1.213032         0.078178
 O         1.548306         2.297208         0.750304
 H        -0.049529        -0.317328         1.642654
 H        -0.640666        -0.240987         0.078203
 H         0.157246        -1.855909         0.791072
 H         2.765067        -0.040002         1.899532
 H         4.615339        -0.568983        -0.380802
 H         3.523972        -1.922899         0.323398
 H         1.846407        -0.634592        -3.097865
 H         3.565781         1.211142        -1.482475
 H         1.714446         1.325565        -2.048275
 H         2.066693         2.336878         1.547479
