19
Iteration:  4789charge 0 multiplicity 1
 C        -0.014441        -0.319288         0.485432
 C         1.372773        -0.161361         0.048209
 C         2.657587        -0.095872         0.758977
 C         3.445968        -1.004185        -0.124461
 C         2.335671        -0.547100        -1.159152
 O         2.002850        -1.438106        -2.198733
 C         2.662499         0.977233        -1.355083
 C         2.138334         1.174451         0.106302
 O         1.806245         2.276454         0.990122
 H        -0.555171        -0.684969        -0.397249
 H        -0.169536        -1.065677         1.292945
 H        -0.607316         0.582066         0.664766
 H         2.713942        -0.007195         1.821554
 H         4.357301        -0.515964        -0.394243
 H         3.517504        -2.039572         0.217476
 H         1.204217        -1.098997        -2.658223
 H         3.669562         1.225165        -1.503692
 H         2.070409         1.502737        -2.143761
 H         1.341195         2.959377         0.435842
