19
Iteration:  2312charge 0 multiplicity 1
 C         0.000959        -0.554344         0.580623
 C         1.348080        -0.127636         0.346550
 C         2.789778        -0.017479         0.817071
 C         3.561388        -0.879180        -0.254007
 C         2.403738        -0.541854        -1.251013
 O         2.103055        -1.403667        -2.331014
 C         2.331890         1.038000        -1.432109
 C         2.022671         1.121695         0.122810
 O         1.688346         2.236793         0.986837
 H        -0.580639         0.254067         0.834188
 H        -0.142102        -1.123250        -0.374247
 H        -0.055380        -1.308461         1.410205
 H         3.277845         0.099341         1.773719
 H         4.569179        -0.588813        -0.552542
 H         3.562039        -1.839797         0.275120
 H         1.835538        -0.762082        -3.088069
 H         3.166356         1.812706        -1.758988
 H         1.435676         1.372327        -2.004265
 H         2.421343         2.841206         0.950008
