19
Iteration:  3955charge 0 multiplicity 1
 C        -0.079627        -0.335390         0.502651
 C         1.413625        -0.198036         0.101047
 C         2.752431        -0.197979         0.877821
 C         3.451375        -1.063889        -0.275072
 C         2.271463        -0.440076        -1.202718
 O         2.044143        -1.183736        -2.312466
 C         2.468781         1.107251        -1.295206
 C         2.233272         1.023871         0.205391
 O         1.763158         2.128421         0.963374
 H        -0.151891        -0.965600         1.413701
 H        -0.491677         0.705428         0.643142
 H        -0.667424        -0.882733        -0.300133
 H         2.869748        -0.325745         1.915268
 H         4.527458        -0.616011        -0.493033
 H         3.414734        -2.172500        -0.121687
 H         1.468537        -0.592634        -2.854095
 H         3.442884         1.398585        -1.845220
 H         1.555282         1.598128        -1.699116
 H         2.640477         2.548869         1.075108
