19
Iteration:  1045charge 0 multiplicity 1
 C        -0.111542        -0.419679         0.381878
 C         1.341480        -0.025369         0.077044
 C         2.614741        -0.166258         0.899446
 C         3.514258        -0.998847        -0.085342
 C         2.383780        -0.469789        -1.085508
 O         2.024567        -1.226819        -2.258405
 C         2.791005         0.980822        -1.376118
 C         2.177266         1.189708         0.035029
 O         1.602096         2.122118         0.913494
 H        -0.544417        -0.080249         1.327232
 H        -0.731941        -0.026266        -0.328349
 H        -0.311995        -1.523447         0.454438
 H         2.660886         0.175142         1.952074
 H         4.550060        -0.696852        -0.394431
 H         3.361667        -1.975996         0.188539
 H         1.822059        -2.177571        -1.984575
 H         3.863185         1.175588        -1.538085
 H         2.278473         1.380710        -2.242718
 H         2.148229         2.906979         1.037636
