19
Iteration:  4924charge 0 multiplicity 1
 C        -0.023644        -0.551614         0.430027
 C         1.342011        -0.074432         0.066605
 C         2.686385        -0.018522         0.903584
 C         3.269043        -1.048844        -0.124543
 C         2.294992        -0.510924        -1.144853
 O         2.064563        -1.417627        -2.192800
 C         2.636566         0.995173        -1.308787
 C         2.104842         1.190759         0.161325
 O         1.933395         2.359757         0.800053
 H        -0.816108         0.237716         0.200562
 H        -0.287924        -1.561313        -0.011345
 H         0.088774        -0.942478         1.526985
 H         2.762471        -0.218453         1.934354
 H         4.369245        -0.779077        -0.429779
 H         3.141280        -2.039082         0.278468
 H         1.259174        -0.970938        -2.559476
 H         3.694530         1.386589        -1.609374
 H         1.890422         1.534577        -1.872626
 H         1.876534         3.065893         0.141620
