19
Iteration:  4941charge 0 multiplicity 1
 C        -0.056978        -0.512653         0.468446
 C         1.389676        -0.159515         0.161607
 C         2.632910        -0.141336         0.906270
 C         3.403010        -1.034291        -0.120388
 C         2.313834        -0.466034        -1.079261
 O         2.023927        -1.300740        -2.166689
 C         2.601118         1.028271        -1.322633
 C         2.202450         1.137509         0.105352
 O         1.888500         2.372757         0.731109
 H        -0.856577         0.028451        -0.036680
 H        -0.448428        -1.371531        -0.094056
 H        -0.415827        -0.891366         1.422417
 H         2.815084         0.108318         2.012481
 H         4.468428        -1.042859        -0.210357
 H         3.189678        -2.192837        -0.051109
 H         1.247068        -1.030221        -2.714304
 H         3.606729         1.133239        -1.598792
 H         1.826365         1.459567        -2.059038
 H         1.808396         2.995801        -0.012275
