19
Iteration:   681charge 0 multiplicity 1
 C        -0.142221        -0.751273         0.338033
 C         1.225213        -0.063755         0.052391
 C         2.485505        -0.108376         0.957974
 C         3.250230        -0.966773        -0.060154
 C         2.321401        -0.404527        -1.122208
 O         2.169705        -1.173842        -2.309738
 C         2.708757         1.014825        -1.176998
 C         2.190255         1.120543         0.199701
 O         2.066627         2.369784         0.679886
 H        -0.574884        -0.439485         1.311765
 H        -0.953153        -0.660484        -0.245874
 H        -0.098934        -1.889735         0.418571
 H         2.633899        -0.015105         2.027366
 H         4.316289        -0.702146        -0.183730
 H         3.078479        -1.994615         0.027366
 H         2.129660        -2.187489        -2.190729
 H         3.730387         1.262751        -1.296579
 H         2.051267         1.600372        -1.845121
 H         1.111479         2.389860         0.892698
