19
Iteration:  3216charge 0 multiplicity 1
 C         0.058480        -0.843787         0.529986
 C         1.397500        -0.232685         0.161792
 C         2.857276        -0.176784         0.787900
 C         3.456071        -0.832927        -0.341132
 C         2.274097        -0.412386        -1.165524
 O         1.962055        -1.188844        -2.282058
 C         2.350152         1.209945        -1.282827
 C         2.115297         1.127539         0.191234
 O         1.822418         2.236307         0.992073
 H         0.005867        -1.680845        -0.180891
 H         0.031798        -1.134109         1.554750
 H        -0.770757        -0.182157         0.320380
 H         3.003704        -0.323133         1.878037
 H         4.510810        -0.705381        -0.621819
 H         3.533935        -1.892894        -0.162405
 H         1.752375        -0.671003        -3.097054
 H         3.087852         1.905280        -1.580475
 H         1.335283         1.574236        -1.568455
 H         2.508770         2.851635         0.640733
