19
Iteration:  2736charge 0 multiplicity 1
 C         0.063340        -0.557675         0.755982
 C         1.389898        -0.165623         0.109009
 C         2.803882        -0.095450         0.852193
 C         3.525543        -0.864330        -0.345774
 C         2.346251        -0.484368        -1.242099
 O         2.023724        -1.283854        -2.370194
 C         2.468553         1.055510        -1.305203
 C         2.042697         1.156319         0.244054
 O         1.612895         2.247118         0.796096
 H        -0.490607        -1.328998         0.318499
 H         0.344634        -0.930907         1.734302
 H        -0.601708         0.235474         0.784933
 H         2.838223        -0.285491         1.892811
 H         4.459172        -0.442737        -0.716129
 H         3.606948        -1.877408         0.082879
 H         2.745253        -1.900516        -2.725470
 H         3.313697         1.565454        -1.654999
 H         1.633586         1.356767        -1.946926
 H         1.932913         2.238147         1.697606
