19
Iteration:  1814charge 0 multiplicity 1
 C         0.223487        -0.652335         0.685461
 C         1.453977        -0.163347         0.084447
 C         2.801227        -0.052876         0.801905
 C         3.625325        -0.864669        -0.058272
 C         2.308826        -0.544453        -1.181860
 O         1.895777        -1.274753        -2.301764
 C         2.470267         0.991642        -1.318554
 C         2.021618         1.182317         0.050827
 O         1.552010         2.278820         0.755342
 H         0.060007        -0.097242         1.687398
 H        -0.667061        -0.369527         0.087573
 H         0.078929        -1.683767         0.635709
 H         2.828537        -0.011953         1.862609
 H         4.727482        -0.751671        -0.238615
 H         3.410379        -1.833428         0.308224
 H         1.894158        -0.574001        -3.017812
 H         3.442753         1.381390        -1.668508
 H         1.833868         1.255313        -2.171349
 H         2.017895         2.431812         1.593109
