19
Iteration:  4154
 C        -0.101217        -0.279139         0.503813
 C         1.328084        -0.215558         0.049182
 C         2.682139        -0.132747         0.826103
 C         3.393991        -1.010883        -0.226623
 C         2.320900        -0.452125        -1.150594
 O         2.009038        -1.262624        -2.375761
 C         2.595570         1.040226        -1.345846
 C         2.189024         1.141485         0.212134
 O         1.847399         2.163758         0.979460
 H        -0.716293        -0.301492        -0.373613
 H        -0.412699        -1.173951         1.040098
 H        -0.316660         0.642008         1.046715
 H         2.629362        -0.145627         1.960987
 H         4.505182        -0.894658        -0.290266
 H         3.298454        -2.067285        -0.018241
 H         2.408372        -2.132458        -2.238789
 H         3.448007         1.535920        -1.886956
 H         1.834589         1.444398        -2.006051
 H         2.375167         2.150584         1.794533
