19
Iteration:  4645charge 0 multiplicity 1
 C        -0.036569        -0.528151         0.396467
 C         1.353872        -0.109984         0.171599
 C         2.673327        -0.064246         0.874355
 C         3.449132        -0.954609        -0.118128
 C         2.350295        -0.463332        -1.121034
 O         1.842777        -1.281463        -2.214543
 C         2.663238         0.977113        -1.281492
 C         2.173594         1.137684         0.077653
 O         1.877109         2.309891         0.806766
 H        -0.622950         0.213384        -0.088338
 H        -0.249508        -1.459270        -0.094330
 H        -0.464414        -0.739041         1.359209
 H         2.647309        -0.309511         2.017457
 H         4.525805        -1.002951        -0.345974
 H         3.174609        -1.986961         0.357322
 H         2.323825        -2.099160        -2.046016
 H         3.687963         1.152283        -1.539923
 H         2.034221         1.456885        -2.120868
 H         1.561704         2.964455         0.148043
