19
Iteration:  1896charge 0 multiplicity 1
 C        -0.030287        -0.707267         0.510448
 C         1.439565        -0.233759         0.073311
 C         2.823646         0.007573         0.845801
 C         3.604089        -0.755724        -0.154568
 C         2.379766        -0.491165        -1.167122
 O         1.986771        -1.315766        -2.100816
 C         2.275330         1.065790        -1.378457
 C         2.066877         1.065865         0.109582
 O         1.758634         2.230992         0.836798
 H        -0.304970        -0.131327         1.311759
 H        -0.702604        -0.565897        -0.306731
 H         0.060592        -1.697202         0.993264
 H         2.925986         0.264061         1.887652
 H         4.557322        -0.458323        -0.536378
 H         3.755041        -1.864258         0.016645
 H         1.793036        -0.690414        -2.862171
 H         3.214821         1.393143        -1.838172
 H         1.342411         1.411459        -1.847559
 H         2.380980         2.840102         0.457953
