19
Iteration:   686
 C        -0.139100        -0.798563         0.386392
 C         1.163036        -0.020050         0.027586
 C         2.507195        -0.076540         0.963277
 C         3.269428        -0.996748        -0.032683
 C         2.338192        -0.440790        -1.170336
 O         2.163007        -1.189291        -2.312357
 C         2.757040         1.065781        -1.253176
 C         2.177189         1.104717         0.173327
 O         2.039545         2.351876         0.741251
 H        -0.472098        -0.368303         1.367375
 H        -1.060046        -0.503977        -0.370020
 H        -0.033721        -1.877097         0.471106
 H         2.554272        -0.001846         2.064618
 H         4.343248        -0.801289        -0.126630
 H         2.992920        -2.111229         0.113392
 H         2.088410        -2.104039        -2.121564
 H         3.872872         1.355566        -1.308363
 H         2.164752         1.723316        -1.883407
 H         1.106852         2.616359         0.901005
