19
Iteration:  2322
 C        -0.021029        -0.587662         0.645517
 C         1.432017        -0.223016         0.329351
 C         2.790937        -0.014501         0.828289
 C         3.522340        -0.801130        -0.190107
 C         2.351979        -0.576396        -1.204715
 O         2.104088        -1.367420        -2.408567
 C         2.363382         1.027530        -1.417724
 C         1.972735         1.158312         0.098747
 O         1.738849         2.241646         0.962523
 H        -0.706444         0.220645         0.750137
 H        -0.463475        -1.043544        -0.316128
 H        -0.175701        -1.323477         1.494221
 H         3.067627         0.436170         1.744336
 H         4.495427        -0.452380        -0.521157
 H         3.599441        -1.905146         0.002365
 H         2.007134        -0.708201        -3.127220
 H         3.387623         1.499048        -1.708529
 H         1.502361         1.220267        -2.111989
 H         2.507677         2.829561         0.976270
