19
Iteration:  4528
 C         0.010351        -0.402891         0.496322
 C         1.394028        -0.130016         0.045973
 C         2.737492        -0.148391         0.884802
 C         3.382363        -1.047892        -0.051418
 C         2.345082        -0.579540        -1.143017
 O         1.845438        -1.183847        -2.219786
 C         2.687674         0.966172        -1.275339
 C         2.120730         1.159161         0.114213
 O         1.793718         2.286182         0.760173
 H        -0.560379        -0.361949        -0.499958
 H         0.115429        -1.481362         0.877629
 H        -0.411189         0.262288         1.267109
 H         2.780074        -0.306576         2.038534
 H         4.472249        -0.937081        -0.276467
 H         3.281829        -1.987038         0.352890
 H         2.492956        -1.774241        -2.680461
 H         3.634572         1.464093        -1.527405
 H         2.085814         1.385297        -2.049406
 H         1.402968         2.873075         0.107589
