19
Iteration:  1750charge 0 multiplicity 1
 C         0.098790        -0.823199         0.470928
 C         1.422995        -0.160164         0.082939
 C         2.758260        -0.025876         0.889408
 C         3.484774        -0.835941        -0.181691
 C         2.311960        -0.455133        -1.091042
 O         2.049787        -1.439590        -2.230823
 C         2.353712         1.084501        -1.341879
 C         2.106895         1.197481         0.154784
 O         1.770858         2.421429         0.877634
 H        -0.149756        -0.306127         1.473970
 H        -0.681318        -0.758576        -0.271339
 H         0.148612        -1.970176         0.544625
 H         2.891152         0.084059         1.949849
 H         4.528213        -0.765146        -0.574565
 H         3.309908        -1.902435         0.033130
 H         1.219886        -1.254376        -2.642880
 H         3.043113         1.708078        -1.948715
 H         1.363239         1.223132        -1.982133
 H         2.412654         3.023799         0.388445
