19
Iteration:  1844charge 0 multiplicity 1
 C         0.071395        -0.644275         0.723995
 C         1.434438        -0.171832         0.125653
 C         2.794700        -0.045540         0.796708
 C         3.483530        -0.857672        -0.255646
 C         2.336713        -0.454215        -1.196282
 O         2.042297        -1.330651        -2.167500
 C         2.441568         1.080125        -1.335262
 C         2.176109         1.168167         0.112426
 O         1.557655         2.193843         0.742451
 H        -0.127072        -0.027037         1.656371
 H        -0.703576        -0.455185        -0.091900
 H        -0.052257        -1.720371         0.987232
 H         2.943596        -0.134977         1.860327
 H         4.570921        -0.820320        -0.537903
 H         3.274533        -1.899354        -0.015711
 H         2.254534        -0.864399        -3.006276
 H         3.337772         1.578239        -1.805459
 H         1.580146         1.329047        -1.941743
 H         2.114335         2.870680         1.147406
