19
Iteration:   747charge 0 multiplicity 1
 C        -0.160512        -0.477810         0.437160
 C         1.363075        -0.123026         0.173567
 C         2.607428        -0.206688         0.937957
 C         3.396890        -1.054062        -0.082049
 C         2.445496        -0.480563        -1.149428
 O         2.103369        -1.143630        -2.353032
 C         2.731743         1.033281        -1.242019
 C         2.210043         1.122338         0.135103
 O         1.644280         2.246760         0.720402
 H        -0.598010         0.196697         1.232355
 H        -0.767478        -0.247470        -0.443010
 H        -0.383125        -1.567009         0.780215
 H         2.806708        -0.099703         2.026654
 H         4.543696        -0.999889        -0.089170
 H         3.196083        -2.096502         0.042026
 H         1.766963        -1.976863        -2.101792
 H         3.746134         1.367930        -1.331385
 H         2.060123         1.552986        -1.941527
 H         2.196733         3.031044         0.528622
