19
Iteration:  1929
 C         0.159143        -0.772257         0.482084
 C         1.429934        -0.152908         0.180798
 C         2.900468         0.011495         0.848621
 C         3.497961        -0.877109        -0.281215
 C         2.294910        -0.511209        -1.179430
 O         2.007266        -1.397686        -2.145601
 C         2.368227         1.002478        -1.360295
 C         2.100952         1.212530         0.217609
 O         1.617921         2.412694         0.815159
 H        -0.417818        -0.343729         1.213645
 H        -0.505736        -0.538773        -0.363526
 H         0.183564        -1.895150         0.399292
 H         3.011920        -0.003436         1.905269
 H         4.483912        -0.642510        -0.627364
 H         3.305411        -1.933009         0.059985
 H         1.237856        -1.065365        -2.707796
 H         3.379532         1.272240        -1.724368
 H         1.620319         1.611168        -1.911629
 H         2.336791         2.912339         1.262824
