19
Iteration:  4863
 C        -0.077962        -0.550699         0.423985
 C         1.330642        -0.139583         0.179218
 C         2.639338        -0.095703         0.879322
 C         3.392385        -1.019236        -0.094673
 C         2.320091        -0.535176        -1.106993
 O         2.024061        -1.358289        -2.231906
 C         2.576317         1.002129        -1.303884
 C         2.211185         1.160065         0.138484
 O         1.976192         2.415391         0.719963
 H        -0.835329         0.088535        -0.055642
 H        -0.299761        -1.607637         0.211010
 H        -0.375220        -0.272788         1.395910
 H         2.868866        -0.068876         1.934038
 H         4.397406        -0.820452        -0.212518
 H         3.160746        -2.055620         0.288320
 H         1.627999        -0.816009        -2.957601
 H         3.569392         1.231903        -1.638450
 H         1.822476         1.592580        -1.885762
 H         1.030629         2.520963         0.838006
