19
Iteration:  2651charge 0 multiplicity 1
 C         0.105733        -0.791902         0.402813
 C         1.416572        -0.210265         0.169187
 C         2.754291        -0.032255         0.888238
 C         3.498013        -0.795146        -0.224714
 C         2.329663        -0.380717        -1.173468
 O         1.947101        -1.344629        -2.084131
 C         2.381851         1.068133        -1.334584
 C         2.045268         1.091390         0.123644
 O         1.792762         2.302299         0.867863
 H        -0.473291        -0.155098        -0.266030
 H         0.064744        -1.848942        -0.031501
 H        -0.130077        -0.906951         1.501385
 H         2.948602         0.128696         1.906301
 H         4.542931        -0.536171        -0.476874
 H         3.497628        -1.886704        -0.154064
 H         1.816345        -0.836046        -2.891307
 H         3.355660         1.452561        -1.815169
 H         1.485119         1.377183        -1.925218
 H         2.331773         3.063797         0.526345
