19
Iteration:  1381
 C        -0.014916        -0.654206         0.418358
 C         1.395973        -0.184923         0.050829
 C         2.699097        -0.035266         0.908427
 C         3.449851        -0.947388        -0.048677
 C         2.445599        -0.501245        -1.120210
 O         1.972049        -1.234214        -2.214150
 C         2.484317         1.052107        -1.377857
 C         2.084424         1.217922         0.092021
 O         1.799173         2.336222         0.793690
 H        -0.349505        -0.152285         1.346155
 H        -0.651373        -0.630490        -0.507551
 H        -0.010836        -1.640355         0.671293
 H         2.725110        -0.125262         1.986164
 H         4.466160        -0.848850        -0.356306
 H         3.310114        -2.076212         0.184273
 H         1.505480        -2.077034        -1.860662
 H         3.388195         1.505059        -1.844906
 H         1.789023         1.185510        -2.176825
 H         2.614914         2.447782         1.318182
