19
Iteration:  2662charge 0 multiplicity 1
 C         0.096239        -0.795089         0.417811
 C         1.507620        -0.257265         0.160638
 C         2.818964        -0.005903         0.914279
 C         3.551075        -0.829988        -0.190364
 C         2.362354        -0.510902        -1.086619
 O         1.855500        -1.265834        -2.163175
 C         2.410728         1.040008        -1.445008
 C         2.054126         1.206382         0.109646
 O         1.696301         2.287193         0.898639
 H        -0.689591        -0.299737        -0.191198
 H        -0.018150        -1.897658         0.176771
 H        -0.352599        -0.542188         1.447445
 H         2.930550         0.134994         1.949347
 H         4.580902        -0.558335        -0.460820
 H         3.397403        -1.895838         0.009212
 H         1.929142        -0.797513        -2.975432
 H         3.408473         1.562742        -1.688319
 H         1.619451         1.426098        -2.123646
 H         2.405089         2.924187         0.647946
