19
Iteration:   175charge 0 multiplicity 1
 C        -0.185094        -0.300955         0.349365
 C         1.323373        -0.150281         0.159797
 C         2.519999        -0.175055         0.945419
 C         3.308659        -1.130191         0.077835
 C         2.385230        -0.558446        -1.150877
 O         2.408860        -1.255330        -2.369302
 C         2.581053         1.008757        -1.331442
 C         2.245095         1.139682         0.169951
 O         1.731373         2.383935         0.729856
 H        -0.608622         0.378341         1.043942
 H        -0.555431        -0.311878        -0.671352
 H        -0.391383        -1.444547         0.739501
 H         2.219739        -0.172895         2.027458
 H         4.366621        -1.185104        -0.060068
 H         2.924814        -2.198115         0.300870
 H         1.712358        -1.997403        -2.342796
 H         3.508357         1.350564        -1.799046
 H         1.719988         1.348146        -1.915293
 H         2.395042         2.750927         1.371703
