19
Iteration:  4339charge 0 multiplicity 1
 C        -0.113318        -0.404790         0.484454
 C         1.353926        -0.166276         0.138446
 C         2.698786        -0.093763         0.909651
 C         3.375118        -1.055166        -0.137902
 C         2.309267        -0.488123        -1.164687
 O         2.012360        -1.350127        -2.290768
 C         2.663144         1.036067        -1.299303
 C         2.191074         1.156137         0.171924
 O         1.900237         2.292334         0.800805
 H        -0.177950        -0.982322         1.450509
 H        -0.636270         0.607340         0.611717
 H        -0.737728        -0.938195        -0.314937
 H         2.707095        -0.092599         1.929546
 H         4.424157        -0.987599        -0.516651
 H         3.066512        -2.086567         0.069243
 H         2.013576        -0.926542        -3.158478
 H         3.595366         1.344092        -1.689814
 H         2.013354         1.583998        -1.947177
 H         1.065713         2.160924         1.287873
