19
Iteration:  2644
 C         0.099539        -0.807379         0.364567
 C         1.385593        -0.184860         0.207112
 C         2.723593        -0.077358         0.803071
 C         3.485932        -0.789628        -0.225934
 C         2.314947        -0.382061        -1.144977
 O         2.003724        -1.388962        -2.083020
 C         2.367870         1.139352        -1.305635
 C         2.075269         1.128654         0.176439
 O         1.828401         2.296321         0.839529
 H        -0.846581        -0.249230         0.069293
 H         0.189574        -1.739156        -0.159896
 H        -0.164571        -0.817730         1.411087
 H         2.974738         0.009985         1.867006
 H         4.463824        -0.422461        -0.606732
 H         3.573753        -1.869933        -0.048628
 H         1.676231        -1.091957        -2.914722
 H         3.283435         1.462777        -1.755803
 H         1.417587         1.427511        -1.750481
 H         2.344103         3.017840         0.414531
