19
Iteration:   424
 C        -0.112391        -0.450079         0.082940
 C         1.352180        -0.169556         0.163531
 C         2.626959        -0.233453         1.085213
 C         3.398849        -1.038486        -0.013056
 C         2.399762        -0.516558        -1.062403
 O         1.944560        -1.254291        -2.216989
 C         2.717058         1.007482        -1.181870
 C         2.241148         1.067917         0.251417
 O         1.783489         2.381210         0.695300
 H        -0.572187         0.133511         0.880134
 H        -0.472820        -0.022889        -0.981484
 H        -0.310020        -1.509218        -0.010224
 H         2.517229        -0.165927         2.168687
 H         4.363894        -0.590817        -0.093568
 H         3.401264        -2.175013         0.170894
 H         2.480409        -0.919664        -3.021375
 H         3.668863         1.408756        -1.644051
 H         1.991594         1.473558        -1.836259
 H         1.460395         2.893494        -0.066840
