19
Iteration:  1899
 C        -0.006344        -0.735826         0.499982
 C         1.434612        -0.187664         0.081820
 C         2.843837        -0.012800         0.899247
 C         3.593583        -0.777596        -0.156991
 C         2.373166        -0.495129        -1.155874
 O         1.985705        -1.309564        -2.103073
 C         2.264261         1.069265        -1.396986
 C         2.062090         1.086993         0.098340
 O         1.761177         2.208620         0.815445
 H        -0.338823        -0.021380         1.324582
 H        -0.740184        -0.552517        -0.318237
 H         0.051131        -1.716052         0.901303
 H         2.979322         0.280003         1.917563
 H         4.575500        -0.402743        -0.548581
 H         3.692714        -1.831542        -0.052853
 H         1.762216        -0.728615        -2.787075
 H         3.210003         1.520078        -1.807258
 H         1.338230         1.332503        -1.872289
 H         2.394989         2.926767         0.529938
