19
Iteration:  4302
 C        -0.172768        -0.554713         0.403735
 C         1.315037        -0.191478         0.110410
 C         2.596666        -0.113291         0.944031
 C         3.438423        -0.994736        -0.173903
 C         2.338007        -0.442291        -1.126628
 O         1.954894        -1.304020        -2.274043
 C         2.580053         1.012567        -1.321078
 C         2.174329         1.101854         0.193188
 O         2.078807         2.417704         0.781703
 H        -0.386244        -0.408948         1.461057
 H        -0.727439         0.269011        -0.019723
 H        -0.531810        -1.531348         0.108005
 H         2.417712        -0.483553         2.036580
 H         4.485877        -0.739930        -0.243410
 H         3.386933        -2.042244         0.240792
 H         2.364611        -0.890840        -3.044062
 H         3.528925         1.151462        -1.706536
 H         1.664514         1.335692        -1.889936
 H         1.689917         2.281472         1.684631
