19
Iteration:  1589charge 0 multiplicity 1
 C        -0.013283        -0.728520         0.512120
 C         1.367269        -0.159499         0.177116
 C         2.689419        -0.088415         0.860813
 C         3.485349        -0.859162        -0.206604
 C         2.304974        -0.442534        -1.159073
 O         2.097023        -1.404407        -2.199477
 C         2.461749         1.100904        -1.284673
 C         2.081019         1.150510         0.162075
 O         1.843815         2.403110         0.680708
 H        -0.407243        -0.443908         1.479471
 H        -0.734194        -0.517855        -0.308984
 H        -0.050574        -1.827539         0.688870
 H         3.017401         0.051765         1.892862
 H         4.549233        -0.685167        -0.298613
 H         3.360056        -1.991524        -0.059168
 H         1.451299        -1.042471        -2.781565
 H         3.450643         1.385132        -1.647574
 H         1.716319         1.528594        -1.950675
 H         1.742095         2.457415         1.650765
