19
Iteration:  4165charge 0 multiplicity 1
 C        -0.040616        -0.277491         0.454367
 C         1.420254        -0.295641         0.097761
 C         2.604385        -0.158063         0.866603
 C         3.373014        -0.991833        -0.191231
 C         2.300775        -0.503210        -1.268513
 O         1.977967        -1.199066        -2.329517
 C         2.547721         1.031907        -1.274648
 C         2.213513         1.103226         0.151322
 O         1.839172         2.236978         0.955473
 H        -0.671048        -0.066148        -0.386893
 H        -0.247474        -1.259271         0.870508
 H        -0.258500         0.418432         1.266628
 H         2.693043        -0.270469         1.982378
 H         4.427250        -0.772021        -0.515167
 H         3.112774        -1.993452         0.106528
 H         2.644274        -1.906208        -2.461359
 H         3.633644         1.128908        -1.529668
 H         1.737498         1.336684        -1.910197
 H         2.480053         2.442897         1.639726
