19
Iteration:  2698charge 0 multiplicity 1
 C         0.179012        -0.679804         0.610155
 C         1.496272        -0.230678         0.148981
 C         2.807852        -0.035519         0.894735
 C         3.486962        -0.841658        -0.258252
 C         2.375417        -0.431174        -1.150276
 O         1.801186        -1.214850        -2.218329
 C         2.568918         1.106913        -1.341964
 C         2.136427         1.109930         0.117343
 O         1.503307         2.207685         0.728741
 H        -0.555541        -0.956287        -0.198212
 H         0.254086        -1.514277         1.346316
 H        -0.143630         0.148111         1.276720
 H         2.916674        -0.275088         1.977545
 H         4.493243        -0.721020        -0.698654
 H         3.380838        -1.922081        -0.118858
 H         2.491263        -1.299147        -2.877576
 H         3.633421         1.300126        -1.554790
 H         1.865044         1.515344        -2.078296
 H         1.824781         2.437284         1.617148
