19
Iteration:  4869
 C        -0.077551        -0.551632         0.456498
 C         1.341371        -0.123823         0.125693
 C         2.605482        -0.079919         0.886036
 C         3.422006        -1.003820        -0.085917
 C         2.237398        -0.472871        -1.084257
 O         2.040643        -1.371780        -2.215752
 C         2.585120         0.987000        -1.333476
 C         2.200793         1.180879         0.126671
 O         2.013303         2.353846         0.717749
 H        -0.896738        -0.017865        -0.085439
 H        -0.370057        -1.555195         0.103255
 H        -0.405819        -0.468711         1.571740
 H         2.642753         0.075039         1.976168
 H         4.603852        -1.018144        -0.321745
 H         3.236026        -2.026628         0.203305
 H         1.637414        -0.729298        -2.834811
 H         3.648722         1.448400        -1.435544
 H         1.905889         1.496896        -2.011455
 H         1.034890         2.420530         0.819051
