19
Iteration:  4957
 C        -0.131680        -0.532563         0.403790
 C         1.332822        -0.154803         0.171865
 C         2.724368        -0.122873         0.953457
 C         3.424399        -1.013480        -0.066743
 C         2.358471        -0.552031        -1.095794
 O         1.962955        -1.273980        -2.201623
 C         2.632439         0.979603        -1.346444
 C         2.182861         1.103187         0.140045
 O         1.886899         2.363683         0.719399
 H        -0.696778         0.377765         0.104486
 H        -0.224439        -1.567670        -0.090369
 H        -0.223732        -0.313006         1.537221
 H         2.772925        -0.245998         1.985704
 H         4.447386        -0.712657        -0.500764
 H         3.407667        -2.006835         0.204325
 H         1.299004        -0.739314        -2.673675
 H         3.603341         1.483536        -1.717784
 H         1.869572         1.389117        -1.965971
 H         1.530436         2.977633         0.029540
