19
Iteration:  4844charge 0 multiplicity 1
 C        -0.032826        -0.414060         0.407978
 C         1.413287        -0.156291         0.158448
 C         2.757320        -0.155721         0.998581
 C         3.371871        -1.052167        -0.140814
 C         2.322131        -0.513266        -1.128666
 O         2.004571        -1.360900        -2.242743
 C         2.588809         0.917473        -1.332822
 C         2.117639         1.146672         0.206463
 O         1.896413         2.473399         0.741275
 H        -0.675395        -0.264767        -0.508825
 H        -0.170145        -1.551965         0.441968
 H        -0.620119         0.008543         1.332785
 H         2.858635        -0.130323         2.122066
 H         4.415782        -0.991326        -0.519829
 H         3.206805        -2.132518         0.024643
 H         1.667814        -0.692184        -2.894478
 H         3.444426         1.471581        -1.587224
 H         1.744939         1.184191        -2.012117
 H         0.927655         2.597810         0.712044
