19
Iteration:  1489
 C         0.024432        -0.566736         0.502749
 C         1.389103        -0.086067         0.155269
 C         2.783602        -0.057043         0.866489
 C         3.455386        -0.933486        -0.154595
 C         2.334141        -0.509760        -1.127282
 O         1.956929        -1.324702        -2.206785
 C         2.633246         1.010689        -1.374969
 C         2.141671         1.133454         0.095988
 O         1.581907         2.269807         0.841979
 H        -0.203082        -0.027998         1.458829
 H        -0.854802        -0.283989        -0.166122
 H         0.002491        -1.733899         0.764181
 H         3.014928        -0.034113         1.938690
 H         4.418377        -0.919713        -0.645854
 H         3.225160        -2.070908         0.040045
 H         2.669782        -1.172620        -2.890547
 H         3.642115         1.434373        -1.610807
 H         1.797782         1.402712        -2.064315
 H         2.174693         2.959711         0.566633
