19
Iteration:  4474charge 0 multiplicity 1
 C        -0.064443        -0.570869         0.314256
 C         1.310901        -0.034996         0.111456
 C         2.589046        -0.085521         0.927594
 C         3.406694        -1.016726        -0.108236
 C         2.266436        -0.578996        -1.104348
 O         1.950451        -1.378437        -2.189588
 C         2.611377         0.986753        -1.310714
 C         2.153008         1.209345         0.121144
 O         2.085687         2.359130         0.832525
 H        -0.216574        -1.369375        -0.489129
 H        -0.016130        -1.252158         1.242114
 H        -0.907433         0.102040         0.587674
 H         2.779109         0.448125         1.965704
 H         4.465034        -0.705040        -0.308076
 H         3.312435        -2.069233        -0.098598
 H         1.603938        -0.812011        -2.931616
 H         3.633914         1.386820        -1.484817
 H         1.917116         1.422040        -1.908666
 H         1.243923         2.815273         0.842178
