19
Iteration:   650charge 0 multiplicity 1
 C        -0.139726        -0.576145         0.173764
 C         1.352457        -0.188737         0.149948
 C         2.628117        -0.196487         1.012716
 C         3.445977        -1.099663         0.019580
 C         2.448850        -0.540719        -1.062754
 O         2.052430        -1.151567        -2.357152
 C         2.536199         0.981553        -1.223266
 C         2.044715         1.185327         0.215751
 O         1.956021         2.524855         0.680182
 H        -0.617178        -0.084786         1.106404
 H        -0.648563        -0.128609        -0.688363
 H        -0.505257        -1.692844         0.199284
 H         2.618733        -0.188197         2.107645
 H         4.509800        -0.893956        -0.101771
 H         3.359455        -2.163058         0.137539
 H         2.162451        -2.074603        -2.417634
 H         3.523423         1.407450        -1.468603
 H         1.756375         1.256837        -1.944038
 H         1.576377         2.393906         1.577316
