19
Iteration:  4961
 C        -0.091156        -0.514401         0.401299
 C         1.343355        -0.119479         0.147262
 C         2.723226        -0.121912         0.927746
 C         3.421369        -0.936488        -0.066055
 C         2.365109        -0.577009        -1.079609
 O         1.940009        -1.284196        -2.224050
 C         2.635284         0.957642        -1.304688
 C         2.179539         1.077276         0.146728
 O         1.891063         2.363666         0.731631
 H        -0.769581         0.251300        -0.024021
 H        -0.451810        -1.465881         0.007383
 H        -0.186243        -0.371011         1.414262
 H         2.838191        -0.246398         2.052308
 H         4.463982        -0.816967        -0.502608
 H         3.426831        -2.064009         0.277308
 H         1.316804        -0.764451        -2.768165
 H         3.577514         1.457292        -1.571041
 H         1.778504         1.244867        -2.010149
 H         1.457229         2.882128         0.050223
