19
Iteration:  1450
 C        -0.020509        -0.357793         0.557428
 C         1.434044        -0.256751         0.120996
 C         2.770673        -0.126533         0.933073
 C         3.500879        -0.924121        -0.182344
 C         2.432409        -0.554058        -1.100070
 O         2.123511        -1.298328        -2.278299
 C         2.436951         0.994190        -1.343481
 C         2.051621         1.066118         0.131618
 O         1.626955         2.273020         0.691566
 H        -0.028572         0.093942         1.563921
 H        -0.635073         0.083591        -0.222040
 H        -0.402175        -1.294407         0.743986
 H         2.983564        -0.088122         2.026454
 H         4.577823        -0.670982        -0.340886
 H         3.473888        -1.954315         0.043897
 H         1.228466        -0.884340        -2.534933
 H         3.345029         1.545141        -1.684329
 H         1.613281         1.399770        -1.903912
 H         2.225036         2.641008         1.391347
