19
Iteration:   520charge 0 multiplicity 1
 C        -0.138966        -0.516653         0.328482
 C         1.279310        -0.160004         0.114345
 C         2.590675        -0.154303         0.930350
 C         3.280596        -1.087632         0.028050
 C         2.396836        -0.490124        -1.168948
 O         2.151713        -1.182042        -2.365543
 C         2.661186         0.961863        -1.173073
 C         2.066153         1.160407         0.179967
 O         1.929278         2.406044         0.681004
 H        -0.392407         0.158888         1.170880
 H        -0.716416        -0.136461        -0.594855
 H        -0.295577        -1.547772         0.471986
 H         2.629581        -0.201549         2.013824
 H         4.403893        -1.025147         0.024834
 H         2.903564        -2.135943         0.153146
 H         2.844778        -1.913413        -2.428205
 H         3.699100         1.401433        -1.181381
 H         2.155596         1.449411        -2.026062
 H         1.506473         2.383729         1.578631
