19
Iteration:   359charge 0 multiplicity 1
 C        -0.109305        -0.228754         0.374653
 C         1.277606        -0.081129        -0.037926
 C         2.524182        -0.070193         0.921615
 C         3.201455        -1.054514        -0.036934
 C         2.341987        -0.495096        -1.203003
 O         2.449385        -1.446254        -2.231218
 C         2.703545         0.953594        -1.312666
 C         2.159964         1.205926         0.119688
 O         1.812310         2.232783         0.969955
 H        -0.421309         0.456568         1.151117
 H        -0.831297        -0.153163        -0.520656
 H        -0.403259        -1.232088         0.706081
 H         2.397526        -0.209700         1.991207
 H         4.267253        -1.040225        -0.198823
 H         2.863069        -2.158806         0.075447
 H         1.853874        -1.275168        -2.966050
 H         3.771116         1.121234        -1.708214
 H         1.976229         1.360304        -2.024473
 H         0.830241         2.356346         0.888570
