19
Iteration:  1790charge 0 multiplicity 1
 C         0.071458        -0.785535         0.650037
 C         1.403924        -0.230686         0.177629
 C         2.771321        -0.005088         0.947897
 C         3.513245        -0.824256        -0.272871
 C         2.281575        -0.497361        -1.169738
 O         1.942717        -1.296241        -2.202729
 C         2.625300         1.019950        -1.364639
 C         2.070658         1.161770         0.099562
 O         1.623475         2.332627         0.709643
 H        -0.122493        -0.357463         1.672637
 H        -0.889864        -0.597105         0.054507
 H         0.096067        -1.834150         0.597261
 H         2.989951         0.166987         2.016410
 H         4.468108        -0.419911        -0.718572
 H         3.646059        -1.859544        -0.002741
 H         1.969876        -0.631053        -2.975741
 H         3.568626         1.385882        -1.820897
 H         1.901478         1.370304        -2.070487
 H         2.112582         2.694955         1.432608
