19
Iteration:  4574
 C        -0.103191        -0.369116         0.535586
 C         1.321987        -0.147888         0.147194
 C         2.626163        -0.082961         0.790915
 C         3.422868        -1.015665        -0.174545
 C         2.329687        -0.502713        -1.119627
 O         2.121874        -1.352543        -2.265431
 C         2.565546         1.012203        -1.322874
 C         2.160923         1.182017         0.120109
 O         1.928529         2.279935         0.806970
 H        -0.770354         0.437103         0.016889
 H        -0.442415        -1.399071         0.209396
 H        -0.282131        -0.435053         1.647542
 H         2.434062        -0.077599         1.805618
 H         4.474057        -0.834353        -0.364835
 H         3.271888        -2.009099         0.136360
 H         1.766771        -2.223918        -2.034067
 H         3.591156         1.339206        -1.604218
 H         1.937121         1.453777        -1.990658
 H         1.001461         2.572921         0.899092
