19
Iteration:  2459
 C        -0.014370        -0.754149         0.390504
 C         1.394894        -0.158015         0.309377
 C         2.772451        -0.140930         0.864319
 C         3.425378        -0.815371        -0.291369
 C         2.283806        -0.412802        -1.124220
 O         2.147379        -1.415235        -2.102179
 C         2.404316         1.074780        -1.377182
 C         2.090708         1.188770         0.134990
 O         1.762148         2.385863         0.769401
 H        -0.227597        -1.256382         1.417860
 H        -0.662133         0.080972         0.130511
 H        -0.060136        -1.560690        -0.347148
 H         3.034265        -0.073717         1.884779
 H         4.431434        -0.356700        -0.494648
 H         3.614205        -1.904411        -0.207138
 H         1.240354        -1.702804        -2.372801
 H         3.400976         1.579347        -1.580149
 H         1.473404         1.541869        -1.802049
 H         2.577387         2.905401         0.935074
