19
Iteration:  2989charge 0 multiplicity 1
 C         0.123971        -0.699158         0.548970
 C         1.443231        -0.168206         0.071872
 C         2.942421        -0.087940         0.823805
 C         3.573535        -0.884711        -0.346635
 C         2.315622        -0.491916        -1.139311
 O         1.746276        -1.040549        -2.273955
 C         2.580025         1.126642        -1.229821
 C         2.156897         1.074675         0.240928
 O         1.531008         2.144647         0.862936
 H        -0.571414        -0.003770         1.069070
 H        -0.391919        -1.247298        -0.313295
 H         0.398415        -1.317143         1.408356
 H         3.147572        -0.273395         1.857676
 H         4.474520        -0.537129        -0.788521
 H         3.401579        -1.927558         0.065579
 H         1.958124        -1.957210        -2.294076
 H         3.570854         1.390367        -1.630033
 H         1.686209         1.361463        -1.910264
 H         1.907157         2.991242         0.586390
