19
Iteration:  4899charge 0 multiplicity 1
 C        -0.070318        -0.610967         0.491448
 C         1.304182        -0.058923         0.055574
 C         2.523824        -0.070488         0.810523
 C         3.370832        -0.955515        -0.063521
 C         2.292492        -0.497678        -1.174790
 O         2.034540        -1.457174        -2.188240
 C         2.673975         0.981186        -1.384880
 C         2.171869         1.241167         0.090363
 O         2.000264         2.363054         0.898402
 H        -0.797418         0.209513         0.181067
 H        -0.375321        -1.652479         0.094362
 H         0.118892        -0.930825         1.607084
 H         2.796145         0.076601         1.913198
 H         4.432383        -0.845979        -0.209183
 H         3.095248        -1.964600         0.277870
 H         1.498953        -0.876411        -2.778597
 H         3.704958         1.324847        -1.478958
 H         2.037554         1.456449        -2.159179
 H         1.398551         2.929454         0.408602
