19
Iteration:  4551
 C        -0.066616        -0.423799         0.506656
 C         1.354945        -0.138820         0.076090
 C         2.703133        -0.123490         0.972851
 C         3.356174        -1.023743        -0.125125
 C         2.334098        -0.485161        -1.166957
 O         1.956924        -1.272630        -2.296529
 C         2.691639         0.950418        -1.364178
 C         2.191211         1.181247         0.170038
 O         1.806033         2.273753         0.810835
 H        -0.786855         0.239910        -0.107982
 H        -0.375790        -1.520688         0.650929
 H        -0.028937        -0.018530         1.546485
 H         2.913088         0.279672         1.965470
 H         4.399164        -0.817252        -0.431295
 H         3.313956        -1.996882         0.211800
 H         2.307003        -2.178532        -2.294583
 H         3.718794         1.168330        -1.729443
 H         2.132540         1.392424        -2.112524
 H         1.084368         2.764109         0.350944
