19
Iteration:  4543charge 0 multiplicity 1
 C        -0.000349        -0.427084         0.499295
 C         1.416631        -0.166469         0.116783
 C         2.638154        -0.050310         0.912957
 C         3.400559        -1.030008        -0.124006
 C         2.310864        -0.511323        -1.088383
 O         1.898081        -1.235727        -2.300357
 C         2.711417         0.965879        -1.353107
 C         2.247295         1.120189         0.128901
 O         1.765034         2.286206         0.808011
 H        -0.758962        -0.047955        -0.222140
 H        -0.393456        -1.419769         0.692723
 H        -0.149915         0.123503         1.463822
 H         2.624560         0.037802         1.941649
 H         4.437729        -0.854436        -0.381470
 H         3.135903        -2.121802         0.136738
 H         2.478649        -2.022567        -2.384226
 H         3.773537         1.019146        -1.579920
 H         1.975901         1.379825        -2.021080
 H         1.231789         2.861719         0.234439
