19
Iteration:   921
 C         0.067555        -0.693659         0.454377
 C         1.322575        -0.026367         0.000099
 C         2.561017        -0.103598         0.885113
 C         3.262697        -0.969778        -0.068327
 C         2.250837        -0.430413        -1.131994
 O         2.096356        -1.197198        -2.290327
 C         2.749801         1.019024        -1.265573
 C         2.235578         1.158372         0.148191
 O         1.742277         2.329683         0.727752
 H        -0.307645        -0.290483         1.412447
 H        -0.799739        -0.604027        -0.243097
 H         0.236767        -1.753820         0.542613
 H         2.766030        -0.341670         1.940269
 H         4.366553        -1.047701        -0.251758
 H         2.819916        -1.959969         0.185326
 H         1.748092        -2.097214        -1.997985
 H         3.844338         1.135601        -1.415462
 H         2.045971         1.518987        -1.945242
 H         2.120479         2.465981         1.608914
