19
Iteration:  3821
 C        -0.032464        -0.787666         0.431822
 C         1.268190        -0.137930         0.057108
 C         2.695049        -0.196796         0.777533
 C         3.393875        -0.959656        -0.284023
 C         2.239032        -0.388290        -1.218386
 O         1.882459        -1.159518        -2.246616
 C         2.553402         1.104343        -1.279930
 C         2.172229         1.129005         0.238810
 O         2.011029         2.302800         1.019211
 H        -0.698806        -0.301045         1.130964
 H        -0.550508        -1.054791        -0.485899
 H         0.109485        -1.692927         1.015599
 H         2.921458        -0.182688         1.855986
 H         4.282859        -0.650952        -0.626941
 H         3.396681        -2.021536        -0.088034
 H         2.456415        -0.792875        -2.969026
 H         3.442411         1.713419        -1.542031
 H         1.642266         1.652981        -1.641744
 H         2.883233         2.455576         1.429224
