19
Iteration:  3063charge 0 multiplicity 1
 C         0.107201        -0.885561         0.574621
 C         1.380876        -0.182162         0.209609
 C         2.757874        -0.190913         0.852615
 C         3.474937        -0.813924        -0.307885
 C         2.243393        -0.401452        -1.233472
 O         2.060896        -1.225394        -2.362221
 C         2.316138         1.147198        -1.342974
 C         2.065186         1.166428         0.201835
 O         1.864969         2.350448         0.896698
 H        -0.792380        -0.218794         0.674738
 H        -0.187671        -1.640566        -0.160227
 H         0.328319        -1.313640         1.545248
 H         3.136818        -0.360988         1.851576
 H         4.362770        -0.233966        -0.497193
 H         3.326125        -1.829307        -0.384399
 H         1.405123        -1.971707        -2.256209
 H         3.214494         1.789658        -1.536971
 H         1.460553         1.769457        -1.787854
 H         2.446630         2.511533         1.651564
