19
Iteration:   158charge 0 multiplicity 1
 C        -0.118270        -0.318161         0.423118
 C         1.285567        -0.066587        -0.034057
 C         2.570460        -0.088445         0.939133
 C         3.207713        -1.141173         0.012230
 C         2.440893        -0.580561        -1.124336
 O         2.392290        -1.257678        -2.380503
 C         2.734482         0.909236        -1.278184
 C         2.090564         1.166781         0.139835
 O         1.635642         2.323367         0.821854
 H        -0.281712         0.533351         1.196785
 H        -0.900861         0.011820        -0.295555
 H        -0.247197        -1.226949         0.905172
 H         2.648966        -0.141352         2.021844
 H         4.347449        -1.215250        -0.115351
 H         2.862929        -2.112103         0.254925
 H         1.940192        -2.166155        -2.251764
 H         3.796733         1.185980        -1.499353
 H         2.028050         1.276006        -2.067043
 H         2.485187         2.804397         0.958521
