19
Iteration:  4634charge 0 multiplicity 1
 C        -0.131633        -0.497246         0.355019
 C         1.384723        -0.200103         0.127199
 C         2.716178        -0.060065         0.866578
 C         3.404930        -0.951785        -0.124303
 C         2.291864        -0.548264        -1.092242
 O         1.954268        -1.228104        -2.181090
 C         2.635662         0.982373        -1.325213
 C         2.112077         1.157446         0.153207
 O         1.943966         2.314744         0.797812
 H        -0.858017         0.239798         0.094645
 H        -0.374323        -1.376723        -0.200595
 H        -0.169415        -0.622997         1.417640
 H         3.048876        -0.045200         1.993623
 H         4.483301        -0.715437        -0.211817
 H         3.205767        -2.071259         0.168313
 H         2.070423        -2.199416        -2.046975
 H         3.647269         1.192599        -1.635309
 H         1.812478         1.293560        -2.078064
 H         1.460414         2.907201         0.223060
