19
Iteration:  4460charge 0 multiplicity 1
 C        -0.100959        -0.614138         0.354969
 C         1.319211        -0.162109         0.096856
 C         2.599252        -0.066665         0.841617
 C         3.349603        -1.015877        -0.075607
 C         2.325983        -0.482190        -1.096282
 O         2.016371        -1.367648        -2.155802
 C         2.558266         1.051706        -1.362873
 C         2.128964         1.175300         0.074331
 O         2.160093         2.405274         0.892389
 H        -0.360271        -1.231817        -0.519140
 H        -0.246073        -1.196812         1.302937
 H        -0.845484         0.215055         0.208026
 H         2.650409        -0.109738         1.992240
 H         4.385291        -0.864462        -0.379866
 H         3.243371        -1.963159         0.385464
 H         1.215484        -1.031391        -2.575672
 H         3.520376         1.306231        -1.751378
 H         1.884316         1.429909        -2.137484
 H         1.245083         2.782582         0.812846
