19
Iteration:  2179charge 0 multiplicity 1
 C         0.122897        -0.791854         0.608148
 C         1.366603        -0.213300         0.188747
 C         2.731267        -0.058334         0.871052
 C         3.473493        -0.857273        -0.274667
 C         2.321272        -0.430307        -1.165356
 O         2.079872        -1.392726        -2.260657
 C         2.430406         1.046910        -1.345416
 C         1.921006         1.147449         0.121243
 O         1.757282         2.455616         0.844970
 H         0.088569        -0.903483         1.650907
 H        -0.788172        -0.303981         0.270938
 H         0.204490        -1.857952         0.324331
 H         2.976875        -0.070886         1.973313
 H         4.431642        -0.510557        -0.665143
 H         3.453477        -1.951493         0.016209
 H         1.927309        -0.714748        -2.988593
 H         3.483870         1.230948        -1.516273
 H         1.609901         1.503443        -1.905405
 H         2.466686         3.023314         0.560250
