19
Iteration:  2020
 C         0.041472        -0.694249         0.675532
 C         1.402299        -0.271177         0.313224
 C         2.869445        -0.074144         0.880354
 C         3.390120        -0.891304        -0.318589
 C         2.309760        -0.436474        -1.183458
 O         2.185907        -1.319195        -2.210565
 C         2.435490         1.081695        -1.439792
 C         1.981399         1.127246         0.114690
 O         1.641342         2.341381         0.805643
 H        -0.400784        -0.134663         1.506549
 H        -0.570054        -0.457763        -0.189420
 H         0.046816        -1.756134         0.751160
 H         3.336623        -0.057046         1.914773
 H         4.410896        -0.674252        -0.685924
 H         3.254777        -1.898898        -0.070814
 H         1.785370        -0.836815        -2.990973
 H         3.398999         1.543561        -1.759073
 H         1.585209         1.556740        -1.917998
 H         2.412824         2.826220         0.536047
