19
Iteration:  1939
 C         0.104028        -0.818879         0.468198
 C         1.420652        -0.152831         0.084589
 C         2.917505         0.110788         0.850877
 C         3.477972        -0.870132        -0.303492
 C         2.269346        -0.455517        -1.081410
 O         1.985640        -1.452952        -2.194925
 C         2.484863         1.054355        -1.282346
 C         2.093564         1.190765         0.200382
 O         1.618038         2.411313         0.791673
 H        -0.083095        -0.492314         1.480080
 H        -0.680234        -0.525400        -0.239561
 H         0.091947        -1.978840         0.654907
 H         3.104991        -0.094779         1.876135
 H         4.464636        -0.863962        -0.748073
 H         3.387639        -1.972650         0.030086
 H         1.087945        -1.229745        -2.642222
 H         3.461967         1.502751        -1.504478
 H         1.681316         1.437497        -1.996447
 H         2.265411         2.756274         1.410531
