19
Iteration:  1457
 C         0.047599        -0.388937         0.552850
 C         1.454123        -0.251191         0.175884
 C         2.735563        -0.129235         0.905725
 C         3.521048        -0.924099        -0.107262
 C         2.395501        -0.531700        -1.147740
 O         2.095637        -1.287979        -2.280621
 C         2.455422         0.965038        -1.365887
 C         2.104038         1.106733         0.132130
 O         1.604212         2.237347         0.685965
 H        -0.107977         0.267673         1.443926
 H        -0.654649         0.201835        -0.131948
 H        -0.293131        -1.476534         0.663109
 H         2.700861        -0.082091         1.997790
 H         4.515594        -0.728121        -0.454598
 H         3.257899        -2.033622         0.189699
 H         1.432471        -0.659467        -2.613637
 H         3.248170         1.674163        -1.693243
 H         1.477451         1.369922        -1.754075
 H         2.330312         2.673294         1.222860
