19
Iteration:  2835charge 0 multiplicity 1
 C         0.141407        -0.851928         0.457882
 C         1.414794        -0.160859         0.103429
 C         2.912372        -0.013530         0.777804
 C         3.567943        -0.948551        -0.185753
 C         2.354984        -0.435808        -1.090624
 O         1.719603        -1.074208        -2.265731
 C         2.571436         1.113164        -1.278145
 C         2.101644         1.190239         0.097361
 O         1.623827         2.170574         0.903276
 H         0.318243        -1.419299         1.343445
 H        -0.690553        -0.208340         0.791402
 H        -0.188498        -1.399632        -0.370915
 H         2.929650         0.161277         1.880352
 H         4.555825        -0.784070        -0.708679
 H         3.784092        -2.041948         0.150261
 H         1.401850        -1.913392        -1.759156
 H         3.536951         1.510174        -1.368307
 H         1.841770         1.451957        -2.022656
 H         1.889283         2.967438         0.391131
