19
Iteration:  1433charge 0 multiplicity 1
 C        -0.115446        -0.381620         0.572828
 C         1.356030        -0.272548         0.187945
 C         2.756505        -0.112697         0.792956
 C         3.560422        -0.872278        -0.216855
 C         2.256774        -0.496225        -1.167691
 O         2.193292        -1.376823        -2.247982
 C         2.557019         1.007721        -1.305238
 C         2.128923         1.125275         0.147342
 O         1.654925         2.295317         0.756326
 H        -0.313004         0.213119         1.467524
 H        -0.773852         0.148871        -0.154416
 H        -0.474582        -1.541492         0.675316
 H         2.929243        -0.008443         1.851798
 H         4.445080        -0.418171        -0.663505
 H         3.645164        -1.999411         0.003551
 H         1.229950        -1.703828        -2.415353
 H         3.587411         1.359088        -1.562250
 H         1.754663         1.500062        -2.028560
 H         2.060773         2.347771         1.662496
