19
Iteration:   380charge 0 multiplicity 1
 C        -0.226788        -0.210833         0.295856
 C         1.235540        -0.048715         0.089589
 C         2.548218        -0.159500         0.920072
 C         3.394615        -1.036905         0.036695
 C         2.435317        -0.530547        -1.128414
 O         2.227682        -1.429529        -2.213106
 C         2.766559         1.017500        -1.362667
 C         2.190006         1.167867         0.059913
 O         1.772907         2.158581         0.909170
 H        -0.612742         0.467860         1.073326
 H        -0.847912        -0.148968        -0.730721
 H        -0.489584        -1.240885         0.510767
 H         2.878239         0.133349         1.915989
 H         4.422720        -0.802467        -0.154466
 H         3.251222        -2.180750         0.188705
 H         2.146958        -0.735966        -2.970456
 H         3.811692         1.452908        -1.549783
 H         2.172882         1.438091        -2.187933
 H         0.806663         2.123498         0.955928
