19
Iteration:  2518charge 0 multiplicity 1
 C         0.048096        -0.586204         0.677990
 C         1.427929        -0.260655         0.142473
 C         2.792184        -0.107092         0.880844
 C         3.536109        -0.859021        -0.167482
 C         2.352175        -0.410599        -1.217444
 O         1.958519        -1.284929        -2.225761
 C         2.590270         1.022004        -1.414469
 C         2.129289         1.103531         0.083680
 O         1.496037         2.253075         0.793910
 H         0.010119        -0.077069         1.590265
 H        -0.804970        -0.148612         0.129976
 H        -0.194968        -1.661804         0.752368
 H         2.939433        -0.161786         2.013479
 H         4.550406        -0.517290        -0.254354
 H         3.391103        -1.927180         0.024095
 H         2.623607        -1.202080        -2.894829
 H         3.508725         1.351330        -1.824151
 H         1.797628         1.524747        -1.969234
 H         2.040139         3.069128         0.625858
