19
Iteration:   719charge 0 multiplicity 1
 C         0.102024        -0.622408         0.395529
 C         1.295960        -0.053043        -0.093075
 C         2.521784        -0.003440         0.892458
 C         3.235376        -1.056529        -0.034684
 C         2.357750        -0.567585        -1.128460
 O         2.137573        -1.170991        -2.337588
 C         2.735432         0.928968        -1.284323
 C         2.116439         1.207195         0.094972
 O         1.786183         2.286277         0.982580
 H         0.049440         0.019670         1.295047
 H        -0.774591        -0.214260        -0.320243
 H         0.082158        -1.651914         0.675830
 H         2.417523         0.139899         1.973247
 H         4.318669        -1.139823        -0.132759
 H         2.945215        -2.137569         0.270810
 H         1.783380        -2.045474        -2.174726
 H         3.848241         1.235846        -1.375887
 H         2.141317         1.387856        -2.089566
 H         1.694598         3.139427         0.558043
