19
Iteration:  2723charge 0 multiplicity 1
 C         0.104252        -0.579388         0.772122
 C         1.389929        -0.200415         0.072944
 C         2.766835        -0.162965         0.779872
 C         3.564869        -0.899716        -0.302660
 C         2.396186        -0.448536        -1.207239
 O         1.936065        -1.284132        -2.274608
 C         2.500244         1.187377        -1.262862
 C         2.143449         1.069090         0.125852
 O         1.512307         2.287699         0.750115
 H        -0.473807        -1.282197         0.173825
 H         0.313361        -1.071462         1.700980
 H        -0.431006         0.270414         1.070794
 H         2.952205        -0.233872         1.852318
 H         4.598425        -0.681797        -0.581068
 H         3.492463        -1.996093        -0.378236
 H         2.726949        -1.700824        -2.559037
 H         3.474232         1.499411        -1.419060
 H         1.726699         1.705767        -1.816437
 H         1.702424         2.421304         1.710050
