19
Iteration:   908charge 0 multiplicity 1
 C         0.029430        -0.738907         0.425736
 C         1.307291        -0.087314         0.149691
 C         2.640803        -0.071087         1.036517
 C         3.249751        -1.068399        -0.055439
 C         2.377208        -0.505361        -1.138845
 O         2.030774        -1.134698        -2.423375
 C         2.719076         1.023385        -1.226739
 C         2.137102         1.165263         0.187335
 O         1.767476         2.386294         0.628751
 H        -0.327012        -0.389531         1.375227
 H        -0.716902        -0.460104        -0.420673
 H         0.158878        -1.778199         0.530477
 H         2.755796         0.080052         2.135705
 H         4.326869        -0.965910        -0.254974
 H         3.078474        -2.167575         0.222983
 H         1.711700        -2.021122        -2.263525
 H         3.793808         1.303877        -1.381510
 H         2.199016         1.657864        -2.011777
 H         2.374823         2.687827         1.340959
