19
Iteration:  3859
 C         0.016519        -0.716748         0.392595
 C         1.328124        -0.143662         0.128564
 C         2.670379        -0.147935         0.798191
 C         3.370568        -1.017456        -0.247054
 C         2.316973        -0.454157        -1.169957
 O         1.947085        -1.136192        -2.381372
 C         2.522029         1.126715        -1.207920
 C         2.100771         1.101198         0.241390
 O         1.991766         2.293065         0.983560
 H        -0.270459        -0.465430         1.452309
 H        -0.845587        -0.359730        -0.215221
 H         0.255014        -1.790542         0.168294
 H         2.874063        -0.191799         1.840648
 H         4.381099        -0.563011        -0.357140
 H         3.364160        -2.097636        -0.016898
 H         0.996157        -1.081020        -2.509167
 H         3.437543         1.451086        -1.660820
 H         1.661164         1.543908        -1.684054
 H         2.882695         2.643003         1.228438
