19
Iteration:  2227charge 0 multiplicity 1
 C         0.187026        -0.701956         0.621528
 C         1.435171        -0.228291         0.180060
 C         2.781264         0.017066         0.822265
 C         3.496627        -0.857734        -0.181775
 C         2.341967        -0.427671        -1.139903
 O         1.991126        -1.261776        -2.259174
 C         2.515248         1.058614        -1.400687
 C         2.056485         1.148816         0.043853
 O         1.572709         2.215900         0.818841
 H        -0.212845        -0.339897         1.608889
 H        -0.499915        -0.227698        -0.090854
 H         0.083424        -1.797364         0.638662
 H         2.859479         0.040791         1.885696
 H         4.568058        -0.660967        -0.443113
 H         3.282660        -1.909867        -0.037056
 H         1.067613        -1.202098        -2.405051
 H         3.522992         1.398921        -1.459050
 H         1.840597         1.279162        -2.169288
 H         2.356441         2.617384         1.278923
