19
Iteration:   354charge 0 multiplicity 1
 C        -0.125454        -0.263811         0.377048
 C         1.292222        -0.126129        -0.070444
 C         2.512022        -0.090026         0.918192
 C         3.193410        -1.075830        -0.023277
 C         2.309771        -0.496494        -1.158056
 O         2.474210        -1.452764        -2.264281
 C         2.707982         0.977786        -1.292614
 C         2.154909         1.190129         0.143953
 O         1.824168         2.280054         0.952106
 H        -0.220197         0.578648         1.163296
 H        -0.846515        -0.104235        -0.446066
 H        -0.409557        -1.274254         0.729274
 H         2.392498        -0.187663         2.005756
 H         4.298258        -1.081003        -0.301459
 H         2.830921        -2.034647         0.091263
 H         1.726131        -1.277633        -2.943284
 H         3.642972         1.325003        -1.668952
 H         2.044030         1.412900        -2.080342
 H         0.912887         2.582108         0.826203
