19
Iteration:  3283
 C         0.109554        -0.810246         0.646794
 C         1.409221        -0.311750         0.071436
 C         2.786003        -0.167626         0.769665
 C         3.545119        -0.818005        -0.271421
 C         2.338358        -0.372146        -1.232374
 O         1.814884        -1.031436        -2.383873
 C         2.527725         1.194302        -1.297521
 C         2.100929         1.087425         0.174331
 O         1.765938         2.210812         0.952495
 H         0.400288        -1.685114         1.245615
 H        -0.429576         0.016765         1.050421
 H        -0.669097        -1.169434        -0.012459
 H         3.129048        -0.203062         1.820167
 H         4.614109        -0.489087        -0.371372
 H         3.562546        -1.901687        -0.193636
 H         1.101842        -1.593843        -2.041776
 H         3.468922         1.547556        -1.742005
 H         1.697707         1.616553        -1.966267
 H         1.685869         1.949505         1.883005
