19
Iteration:  2967
 C         0.087307        -0.650865         0.624153
 C         1.507278        -0.310676         0.271773
 C         2.841812        -0.144473         0.837528
 C         3.528292        -0.896640        -0.430929
 C         2.286932        -0.418726        -1.194780
 O         1.954712        -1.164992        -2.381814
 C         2.379381         1.164616        -1.286400
 C         2.124942         1.114953         0.215937
 O         1.612850         2.230511         0.911671
 H        -0.435862         0.227060         1.071549
 H        -0.369269        -0.751875        -0.414214
 H        -0.118298        -1.486395         1.296493
 H         3.212838        -0.206653         1.859497
 H         4.497134        -0.495421        -0.649031
 H         3.280234        -1.913865        -0.152499
 H         2.282817        -2.077634        -2.106163
 H         3.345939         1.503909        -1.669585
 H         1.529888         1.469437        -1.972783
 H         2.273207         2.956795         0.922084
