19
Iteration:  1544
 C         0.089104        -0.822376         0.387191
 C         1.353520        -0.104320         0.155760
 C         2.624873        -0.038902         0.888064
 C         3.463389        -0.865670        -0.072544
 C         2.325483        -0.474841        -1.131031
 O         1.975376        -1.210898        -2.209679
 C         2.441243         0.928165        -1.389827
 C         2.229271         1.198266         0.084504
 O         1.821964         2.398878         0.759180
 H        -0.353678        -0.430035         1.313867
 H        -0.627881        -0.676839        -0.459486
 H         0.139057        -1.931949         0.722816
 H         2.684929        -0.098368         2.000141
 H         4.427533        -0.566208        -0.429839
 H         3.506972        -2.028970         0.054982
 H         1.393614        -1.886382        -1.868846
 H         3.393820         1.388352        -1.702535
 H         1.611675         1.447403        -1.906389
 H         2.404752         2.515709         1.521148
