19
Iteration:  1074
 C        -0.011258        -0.564032         0.391295
 C         1.302181        -0.169778        -0.036257
 C         2.569353        -0.083653         0.862860
 C         3.402872        -0.948828        -0.056754
 C         2.347584        -0.450043        -1.156574
 O         2.098996        -1.283373        -2.308923
 C         2.670524         1.016203        -1.237559
 C         2.110546         1.141565         0.145739
 O         1.789879         2.328931         0.817972
 H        -0.246764         0.018612         1.353685
 H        -0.779632        -0.065485        -0.333216
 H        -0.345918        -1.588483         0.541143
 H         2.460746         0.002606         1.933422
 H         4.512255        -0.944113        -0.242384
 H         3.185152        -2.001912         0.403594
 H         1.707573        -2.069372        -1.978763
 H         3.794850         1.213425        -1.343894
 H         2.181225         1.640957        -1.983629
 H         2.267952         2.344014         1.649635
