19
Iteration:  2082charge 0 multiplicity 1
 C         0.052236        -0.590238         0.559412
 C         1.429999        -0.194760         0.113930
 C         2.809704         0.017369         0.792864
 C         3.620090        -0.818703        -0.274132
 C         2.306279        -0.513271        -1.125245
 O         2.012484        -1.315265        -2.165632
 C         2.506351         1.053409        -1.379779
 C         2.053633         1.103620         0.054007
 O         1.568558         2.203645         0.873833
 H        -0.427019         0.072427         1.241125
 H        -0.693678        -0.828813        -0.246405
 H         0.189998        -1.492546         1.260349
 H         3.123877         0.168565         1.849643
 H         4.572849        -0.391493        -0.678306
 H         3.722593        -1.943680        -0.127835
 H         1.045284        -1.104380        -2.336733
 H         3.525537         1.349695        -1.651077
 H         1.722797         1.540367        -1.975705
 H         2.236133         2.292894         1.549223
