19
Iteration:    98charge 0 multiplicity 1
 C        -0.011611        -0.420346         0.223677
 C         1.383615        -0.101141         0.060087
 C         2.550417        -0.132301         0.976067
 C         3.335388        -1.119204         0.046864
 C         2.369257        -0.569293        -1.045030
 O         2.039748        -1.273482        -2.234938
 C         2.723796         0.987019        -1.157046
 C         2.161052         1.153440         0.165584
 O         1.708447         2.384718         0.599881
 H        -0.314875        -0.059272         1.152360
 H        -0.552049         0.147616        -0.521650
 H        -0.460131        -1.457650         0.045794
 H         2.315079        -0.319767         2.012905
 H         4.334426        -0.884374        -0.183283
 H         3.156008        -2.237105         0.190008
 H         2.891483        -1.337386        -2.731334
 H         3.776521         1.237006        -1.322640
 H         2.122257         1.423403        -1.923413
 H         2.270560         2.702345         1.308853
