19
Iteration:   984charge 0 multiplicity 1
 C        -0.214035        -0.373513         0.309350
 C         1.366474        -0.185200         0.196745
 C         2.704465        -0.256126         0.979978
 C         3.446524        -0.888783        -0.167189
 C         2.315879        -0.540473        -1.027721
 O         2.178247        -1.145536        -2.277175
 C         2.525737         0.942331        -1.322249
 C         2.169924         1.096219         0.180121
 O         1.751924         2.271428         0.772836
 H        -0.523451         0.290299         1.099803
 H        -0.736325        -0.127665        -0.724862
 H        -0.413151        -1.421862         0.546429
 H         2.950498        -0.198886         2.054664
 H         4.422193        -0.703119        -0.515550
 H         3.519229        -2.048465        -0.016748
 H         2.214499        -2.119604        -2.175611
 H         3.456702         1.328689        -1.814951
 H         1.609147         1.179670        -1.977761
 H         2.498160         2.847453         0.921107
