19
Iteration:    44
 C        -0.059467        -0.482822        -0.034333
 C         1.341966        -0.176490        -0.012382
 C         2.417731        -0.078502         0.980528
 C         3.347880        -0.851819         0.005296
 C         2.350943        -0.540684        -1.097943
 O         2.076518        -1.466073        -2.046354
 C         2.720988         1.006508        -1.327158
 C         2.119397         1.165810         0.122969
 O         1.946481         2.397965         0.939505
 H        -0.708219        -0.039067         0.585398
 H        -0.501328        -0.243070        -0.949818
 H        -0.174526        -1.564141         0.134514
 H         2.345304        -0.148081         2.064096
 H         4.357434        -0.600898        -0.214239
 H         3.234809        -1.960535         0.109274
 H         1.126630        -1.525812        -2.354651
 H         3.782242         1.222100        -1.443944
 H         2.102312         1.560574        -2.018104
 H         2.859380         2.455095         1.276213
