19
Iteration:   987
 C        -0.222210        -0.356876         0.291543
 C         1.399525        -0.183366         0.218428
 C         2.721593        -0.288909         0.951232
 C         3.439340        -0.914004        -0.160490
 C         2.323715        -0.546668        -1.029411
 O         2.177753        -1.140823        -2.271318
 C         2.504499         0.955926        -1.315193
 C         2.165671         1.078860         0.193501
 O         1.733984         2.292708         0.761337
 H        -0.572610         0.322926         1.102883
 H        -0.713667        -0.140831        -0.652249
 H        -0.348072        -1.390407         0.501146
 H         2.990078        -0.224550         1.983103
 H         4.499423        -0.642509        -0.422688
 H         3.484976        -2.000089        -0.018014
 H         2.204283        -2.076735        -2.179271
 H         3.471942         1.281338        -1.816989
 H         1.596364         1.149410        -1.881153
 H         2.472879         2.925097         0.862469
