19
Iteration:   624
 C        -0.072635        -0.419949         0.152527
 C         1.371113        -0.148709         0.082666
 C         2.682522        -0.088447         0.970117
 C         3.357822        -0.979581        -0.021274
 C         2.340258        -0.496119        -1.067944
 O         2.068576        -1.207804        -2.202676
 C         2.646238         1.013935        -1.325769
 C         2.191176         1.145849         0.148280
 O         1.733334         2.192460         0.779399
 H        -0.478877         0.102236         1.026551
 H        -0.406243         0.030318        -0.796638
 H        -0.412423        -1.524346         0.238167
 H         2.642792        -0.049218         2.077428
 H         4.441185        -0.812100        -0.201352
 H         3.248758        -2.062431         0.171877
 H         1.862290        -2.105445        -2.001352
 H         3.680537         1.189879        -1.613861
 H         1.871858         1.544510        -1.937926
 H         2.182171         2.184214         1.654406
