19
Iteration:  1002charge 0 multiplicity 1
 C        -0.059327        -0.306788         0.287780
 C         1.358890        -0.209338         0.246416
 C         2.733772        -0.253372         0.940895
 C         3.516567        -1.115345        -0.117533
 C         2.404594        -0.495267        -1.150957
 O         2.106586        -1.188894        -2.313011
 C         2.422543         1.001620        -1.207671
 C         2.173339         1.093311         0.250547
 O         1.646199         2.340326         0.723555
 H        -0.610044         0.296926         1.012667
 H        -0.329765         0.028000        -0.686124
 H        -0.512706        -1.341510         0.400472
 H         2.952669        -0.299318         2.024693
 H         4.604009        -0.747621        -0.232894
 H         3.529842        -2.190900         0.001286
 H         2.122414        -2.134586        -2.100600
 H         3.296072         1.481824        -1.625370
 H         1.629642         1.516042        -1.725501
 H         2.325936         2.961158         0.482082
