19
Iteration:  4700charge 0 multiplicity 1
 C        -0.038647        -0.595913         0.435935
 C         1.318873        -0.112540         0.133992
 C         2.622768        -0.074369         0.956415
 C         3.336631        -1.036290        -0.078672
 C         2.347050        -0.486208        -1.125103
 O         1.878919        -1.324897        -2.220617
 C         2.716531         1.060108        -1.333395
 C         2.156222         1.148907         0.032609
 O         1.963087         2.345715         0.798341
 H        -0.747879        -0.648500        -0.378054
 H         0.172753        -1.565724         0.866812
 H        -0.464669         0.127078         1.106351
 H         2.868973         0.135296         2.046062
 H         4.361650        -0.776016        -0.227215
 H         3.217845        -2.159908         0.131025
 H         2.442895        -1.035085        -2.953536
 H         3.732061         1.134642        -1.516256
 H         2.052436         1.467902        -2.155607
 H         1.039543         2.712965         0.690690
