19
Iteration:  4594charge 0 multiplicity 1
 C        -0.079121        -0.381093         0.455918
 C         1.300024        -0.200335         0.064566
 C         2.651641        -0.125497         0.920093
 C         3.342965        -0.929560        -0.075827
 C         2.344166        -0.518418        -1.117160
 O         2.152003        -1.361786        -2.288625
 C         2.489364         0.971063        -1.403098
 C         2.146912         1.069884         0.107126
 O         2.006514         2.407622         0.855107
 H        -0.797876         0.436906         0.153088
 H        -0.607081        -1.337246         0.097036
 H        -0.099295        -0.658408         1.531282
 H         3.015065        -0.074209         1.986350
 H         4.413821        -0.609377        -0.288551
 H         3.275831        -1.951184        -0.003162
 H         1.482153        -2.044436        -2.181814
 H         3.475771         1.421586        -1.767577
 H         1.586009         1.362971        -1.925933
 H         1.046730         2.659268         1.024075
