19
Iteration:  4096
 C        -0.072033        -0.405027         0.395367
 C         1.394580        -0.194374         0.099128
 C         2.670898        -0.212008         0.873770
 C         3.446654        -1.059758        -0.183214
 C         2.326608        -0.462810        -1.122271
 O         1.946777        -1.195450        -2.377176
 C         2.611653         1.068017        -1.252381
 C         2.208082         1.059701         0.256724
 O         1.826685         2.267144         0.853526
 H        -0.564441        -1.076347        -0.288175
 H         0.012030        -0.983534         1.304956
 H        -0.792088         0.395606         0.619230
 H         2.872217        -0.223178         1.912848
 H         4.405140        -0.689475        -0.257947
 H         3.259896        -2.134833         0.053477
 H         0.979600        -0.984864        -2.366253
 H         3.653277         1.313428        -1.454547
 H         1.818618         1.455560        -1.870875
 H         2.605861         2.822932         1.026411
