19
Iteration:  3336
 C         0.055117        -0.689226         0.624781
 C         1.480304        -0.321565         0.295603
 C         2.957636        -0.146166         0.837658
 C         3.513317        -0.974816        -0.439743
 C         2.311093        -0.373352        -1.211964
 O         1.821647        -1.008344        -2.361299
 C         2.420817         1.213824        -1.252301
 C         2.158558         1.102257         0.185485
 O         1.692683         2.182938         0.884040
 H        -0.105930        -1.212405         1.674098
 H        -0.550319         0.281372         0.484779
 H        -0.227268        -1.437354        -0.192541
 H         3.088732        -0.226303         1.936778
 H         4.540509        -0.960628        -0.705043
 H         3.331290        -2.056384        -0.315822
 H         2.480248        -1.451950        -2.910610
 H         3.450916         1.727870        -1.594394
 H         1.436375         1.594112        -1.747552
 H         1.220087         1.798471         1.641957
