19
Iteration:  2207charge 0 multiplicity 1
 C         0.134045        -0.781863         0.599525
 C         1.383531        -0.149348         0.105058
 C         2.807183        -0.061066         0.873901
 C         3.384867        -0.953989        -0.184989
 C         2.332315        -0.410005        -1.182871
 O         2.090712        -1.359316        -2.227533
 C         2.430161         1.152738        -1.361396
 C         2.191988         1.211084         0.116395
 O         1.610900         2.283760         0.784829
 H         0.118667        -0.592957         1.768552
 H        -0.870830        -0.419741         0.277644
 H         0.260445        -1.860382         0.379797
 H         2.952694         0.010326         1.938828
 H         4.466156        -0.758919        -0.462880
 H         3.238752        -1.997932         0.050599
 H         1.308740        -0.949754        -2.650222
 H         3.306776         1.587521        -1.897648
 H         1.453360         1.644556        -1.690834
 H         2.230594         3.022152         0.889866
