19
Iteration:  3185charge 0 multiplicity 1
 C         0.112284        -0.756927         0.589722
 C         1.490979        -0.256409         0.128679
 C         2.836069        -0.073243         0.800609
 C         3.627430        -0.834309        -0.311972
 C         2.302154        -0.508856        -1.179783
 O         1.677941        -1.068258        -2.318966
 C         2.595555         1.092842        -1.302579
 C         2.178096         1.093110         0.122948
 O         1.595837         2.144297         1.053889
 H        -0.272669        -1.275326        -0.292916
 H        -0.006465        -1.295072         1.547135
 H        -0.497508         0.116069         0.759294
 H         2.901082        -0.140648         1.914892
 H         4.672020        -0.369151        -0.697205
 H         3.584227        -1.902045        -0.040982
 H         2.254529        -0.994919        -3.086469
 H         3.475242         1.611987        -1.643122
 H         1.711610         1.523980        -1.891846
 H         1.732864         2.998726         0.621443
