19
Iteration:  2587charge 0 multiplicity 1
 C         0.069454        -0.730153         0.583281
 C         1.377148        -0.152751         0.123187
 C         2.740728         0.035972         0.849588
 C         3.526441        -0.874001        -0.095505
 C         2.375219        -0.449078        -1.108194
 O         2.028344        -1.221164        -2.273390
 C         2.465269         1.062466        -1.382447
 C         2.045421         1.140014         0.061816
 O         1.718431         2.207574         0.793428
 H        -0.710797         0.012156         0.633022
 H        -0.363654        -1.452178        -0.110130
 H         0.154669        -1.418580         1.422073
 H         2.722544         0.262768         1.876960
 H         4.396305        -0.398193        -0.539281
 H         3.544895        -1.932849         0.084027
 H         1.249644        -1.850420        -2.324062
 H         3.289542         1.487468        -1.873595
 H         1.674024         1.354598        -2.028279
 H         2.558802         2.339572         1.266688
