19
Iteration:  4920charge 0 multiplicity 1
 C        -0.019663        -0.549555         0.451359
 C         1.351027        -0.089393         0.041855
 C         2.684509         0.024231         0.902623
 C         3.262854        -1.062700        -0.126973
 C         2.297767        -0.518920        -1.139752
 O         2.060090        -1.438260        -2.205630
 C         2.659884         1.020492        -1.326372
 C         2.100714         1.196263         0.149756
 O         1.942387         2.370022         0.828711
 H        -0.909262         0.074915         0.206202
 H        -0.374207        -1.512127        -0.016378
 H         0.020462        -0.965398         1.500594
 H         2.655632        -0.271336         1.999248
 H         4.233505        -0.811025        -0.351014
 H         3.318728        -2.088746         0.274730
 H         1.293590        -1.004084        -2.601017
 H         3.636652         1.275225        -1.643107
 H         1.865068         1.611406        -1.836527
 H         1.845969         3.106578         0.183178
