19
Iteration:  3226
 C         0.050777        -0.877649         0.527003
 C         1.405305        -0.180815         0.187379
 C         2.774799        -0.121103         0.801594
 C         3.484386        -0.907670        -0.413671
 C         2.272679        -0.352673        -1.208089
 O         2.033587        -1.272354        -2.322356
 C         2.290014         1.240890        -1.242152
 C         2.144299         1.121175         0.308117
 O         1.859377         2.272972         0.973623
 H        -0.052797        -1.872159         0.034790
 H        -0.132488        -1.162109         1.540399
 H        -0.771224        -0.279459         0.138396
 H         2.965615        -0.184630         1.897222
 H         4.419937        -0.519312        -0.727865
 H         3.266832        -1.967671        -0.340630
 H         1.520885        -0.650965        -2.862712
 H         3.133940         1.651911        -1.818693
 H         1.337206         1.594203        -1.678836
 H         2.621713         2.883557         0.994864
