19
Iteration:  2399
 C         0.165324        -0.766646         0.559055
 C         1.385694        -0.080609         0.121370
 C         2.785071         0.118728         0.817102
 C         3.465492        -0.979972        -0.182178
 C         2.316117        -0.506518        -1.117733
 O         1.990167        -1.197563        -2.215883
 C         2.581658         0.969422        -1.321183
 C         2.063704         1.205240         0.065592
 O         1.629128         2.252078         0.735762
 H        -0.076152        -0.503653         1.569290
 H        -0.849924        -0.633254         0.094706
 H         0.268323        -1.890043         0.463726
 H         2.923214         0.230987         1.940115
 H         4.477425        -0.735922        -0.516551
 H         3.388240        -2.037072         0.152090
 H         0.973903        -1.292943        -2.313679
 H         3.566463         1.451883        -1.433122
 H         2.029259         1.438055        -2.123874
 H         1.891909         2.163001         1.646152
