19
Iteration:  4251charge 0 multiplicity 1
 C        -0.053266        -0.683153         0.293428
 C         1.381777        -0.124676         0.040016
 C         2.663946        -0.126948         0.885151
 C         3.296649        -1.067137        -0.070951
 C         2.322343        -0.394133        -1.090401
 O         1.778257        -1.235931        -2.184735
 C         2.759365         1.011855        -1.331246
 C         2.278079         1.168282         0.105316
 O         1.854226         2.390798         0.909826
 H        -0.699704         0.095613         0.759770
 H        -0.592348        -1.087357        -0.630252
 H         0.062962        -1.469541         1.126181
 H         2.909187        -0.047725         1.942823
 H         4.369078        -1.040465        -0.366973
 H         3.001363        -2.137665         0.139763
 H         2.061297        -0.899367        -3.042901
 H         3.900760         1.179256        -1.649562
 H         1.996581         1.477077        -2.012602
 H         2.734561         2.620253         1.274461
