19
Iteration:  4616
 C        -0.116035        -0.471421         0.413803
 C         1.306998        -0.112831         0.159227
 C         2.648820        -0.069975         0.963667
 C         3.472900        -0.983587        -0.080158
 C         2.312158        -0.551707        -1.141103
 O         2.081836        -1.297048        -2.301043
 C         2.473995         0.987230        -1.323563
 C         2.178902         1.099562         0.077835
 O         2.016891         2.357376         0.828209
 H        -0.692230         0.398282        -0.005529
 H        -0.596408        -1.307356        -0.188078
 H        -0.469970        -0.775341         1.416865
 H         2.711712         0.079225         2.044954
 H         4.488797        -0.745463        -0.552968
 H         3.489157        -1.977766         0.219264
 H         1.557688        -2.048937        -1.913569
 H         3.505177         1.280900        -1.724201
 H         1.616967         1.308442        -1.970499
 H         1.154721         2.630059         0.515448
