19
Iteration:  3771charge 0 multiplicity 1
 C         0.000729        -0.524214         0.491015
 C         1.437843        -0.158172         0.154248
 C         2.848096        -0.165326         0.777334
 C         3.483963        -1.057147        -0.375390
 C         2.338070        -0.441053        -1.138218
 O         1.836152        -1.009254        -2.364766
 C         2.599371         1.105029        -1.243559
 C         2.194611         1.132939         0.231771
 O         1.680027         2.091277         0.946658
 H        -0.643719         0.280369         0.906301
 H        -0.590314        -1.034555        -0.314473
 H        -0.004412        -1.189036         1.416765
 H         2.964964        -0.325791         1.888021
 H         4.584833        -0.600329        -0.771839
 H         3.318022        -2.148962        -0.162155
 H         1.290009        -1.764978        -2.129736
 H         3.602243         1.415593        -1.627362
 H         1.838669         1.507851        -1.891831
 H         2.205401         2.419662         1.714919
