19
Iteration:  3418charge 0 multiplicity 1
 C         0.093008        -0.852886         0.509210
 C         1.442177        -0.258241         0.164905
 C         2.782067        -0.155787         0.819018
 C         3.468808        -0.927915        -0.402947
 C         2.264804        -0.372650        -1.220369
 O         1.930440        -1.043199        -2.382217
 C         2.328492         1.104218        -1.274778
 C         2.204443         1.121922         0.248913
 O         1.937286         2.275609         1.127982
 H        -0.488692        -0.159876         1.103000
 H        -0.416787        -0.871536        -0.476485
 H         0.086164        -1.894599         0.855560
 H         3.119600        -0.111976         1.892182
 H         4.577994        -0.839986        -0.614316
 H         3.100676        -1.935753        -0.157826
 H         0.973026        -1.028404        -2.650779
 H         3.188997         1.507757        -1.808345
 H         1.429600         1.504234        -1.743739
 H         1.214722         2.783978         0.662655
