19
Iteration:   545charge 0 multiplicity 1
 C        -0.244271        -0.340668         0.325814
 C         1.324818        -0.187185         0.164795
 C         2.617554        -0.182840         0.998066
 C         3.414384        -1.078464        -0.011391
 C         2.325125        -0.577519        -1.067370
 O         2.248829        -1.091775        -2.404482
 C         2.626586         0.902495        -1.306938
 C         2.221664         1.136620         0.197004
 O         1.838249         2.345362         0.762543
 H        -0.603064         0.349748         1.074650
 H        -0.839080        -0.200526        -0.686421
 H        -0.332099        -1.375103         0.616230
 H         2.555860        -0.184830         2.080637
 H         4.466271        -0.823351        -0.202057
 H         3.225660        -2.198966         0.201098
 H         2.027966        -2.020619        -2.346881
 H         3.606952         1.299859        -1.717337
 H         1.897803         1.243694        -2.027869
 H         0.847467         2.363590         0.789971
