19
Iteration:  2461
 C        -0.030554        -0.763897         0.393443
 C         1.403796        -0.172827         0.325740
 C         2.772664        -0.134104         0.874248
 C         3.413483        -0.810589        -0.295330
 C         2.294915        -0.408842        -1.134759
 O         2.159792        -1.415604        -2.100015
 C         2.402112         1.070878        -1.401916
 C         2.102695         1.185150         0.123692
 O         1.763889         2.387454         0.789481
 H        -0.274771        -1.185567         1.403783
 H        -0.664838         0.091558         0.170097
 H        -0.051141        -1.530259        -0.350606
 H         2.987403        -0.011042         1.891416
 H         4.401058        -0.418969        -0.522855
 H         3.602483        -1.900816        -0.217997
 H         1.207943        -1.639279        -2.395382
 H         3.346161         1.532938        -1.586554
 H         1.491662         1.538244        -1.832119
 H         2.528558         2.953461         0.905258
