19
Iteration:   640
 C        -0.165540        -0.487648         0.152792
 C         1.345637        -0.229236         0.137347
 C         2.650031        -0.145151         0.978281
 C         3.447637        -1.055225         0.047517
 C         2.463653        -0.552946        -1.091390
 O         2.021828        -1.154438        -2.327910
 C         2.559794         1.009402        -1.204111
 C         2.123949         1.132841         0.146808
 O         1.871754         2.416217         0.721582
 H        -0.622194        -0.019020         1.091681
 H        -0.571713        -0.060765        -0.791873
 H        -0.211527        -1.608398         0.181282
 H         2.851667         0.003246         2.043662
 H         4.524093        -0.962841        -0.092615
 H         3.140908        -2.097129         0.289226
 H         2.134176        -2.062958        -2.107536
 H         3.469670         1.547111        -1.591513
 H         1.750163         1.223968        -1.899005
 H         1.799982         2.365056         1.675136
