19
Iteration:  4813
 C        -0.078966        -0.376691         0.448634
 C         1.371384        -0.180061         0.063077
 C         2.733322        -0.064952         0.916071
 C         3.382743        -0.967813        -0.109688
 C         2.352214        -0.478238        -1.119924
 O         1.954765        -1.357677        -2.163056
 C         2.678215         0.998555        -1.388110
 C         2.215017         1.083803         0.111926
 O         1.841975         2.208344         0.833526
 H        -0.735372        -0.468779        -0.399535
 H        -0.123637        -1.284063         1.060295
 H        -0.629941         0.501020         0.869309
 H         2.953588         0.103315         2.003641
 H         4.483066        -0.612975        -0.354555
 H         3.161992        -1.967499         0.162362
 H         1.403514        -0.946517        -2.834579
 H         3.675815         1.488449        -1.617013
 H         1.889163         1.434021        -2.015278
 H         0.998238         2.524973         0.452584
