19
Iteration:  1588
 C        -0.018692        -0.733576         0.506947
 C         1.368811        -0.152893         0.187267
 C         2.692816        -0.083243         0.856183
 C         3.484729        -0.857240        -0.209547
 C         2.315604        -0.439182        -1.164228
 O         2.096451        -1.405755        -2.203069
 C         2.454224         1.098170        -1.268266
 C         2.077878         1.149430         0.162722
 O         1.847632         2.403465         0.677665
 H        -0.387468        -0.439065         1.446412
 H        -0.710713        -0.525553        -0.295300
 H        -0.063898        -1.840628         0.686782
 H         3.006374         0.075458         1.899639
 H         4.540683        -0.724229        -0.267228
 H         3.348833        -1.982032        -0.048852
 H         1.411342        -1.056806        -2.778578
 H         3.416344         1.370130        -1.641384
 H         1.731954         1.521914        -1.974409
 H         1.763477         2.433558         1.632737
