19
Iteration:  4424charge 0 multiplicity 1
 C        -0.056981        -0.515243         0.386190
 C         1.316400        -0.078436         0.137962
 C         2.605510        -0.122440         0.824514
 C         3.376831        -1.010763        -0.093434
 C         2.265904        -0.606387        -1.110552
 O         2.034525        -1.345112        -2.215894
 C         2.608952         1.115678        -1.337871
 C         2.187762         1.188491         0.174749
 O         2.007762         2.319296         0.859422
 H        -0.183440        -1.378621        -0.250064
 H        -0.377005        -0.826709         1.344803
 H        -0.742354         0.291138         0.117430
 H         2.692467        -0.225042         1.814958
 H         4.300288        -0.586565        -0.425973
 H         3.454327        -2.138022         0.197035
 H         1.102435        -1.575017        -2.324932
 H         3.669836         1.346634        -1.545065
 H         1.712355         1.458230        -2.052689
 H         1.715132         2.966054         0.169514
