19
Iteration:   901
 C        -0.013095        -0.713394         0.418111
 C         1.357602        -0.163990         0.193046
 C         2.661355        -0.066032         0.987760
 C         3.325696        -1.131916        -0.001212
 C         2.374889        -0.500860        -1.153155
 O         2.015795        -1.075021        -2.422178
 C         2.719950         1.000301        -1.210247
 C         2.097362         1.128616         0.146017
 O         1.769277         2.461026         0.632138
 H        -0.577257        -0.476876         1.380718
 H        -0.727886        -0.561821        -0.344493
 H         0.071155        -1.857753         0.445924
 H         2.543580         0.071002         2.069557
 H         4.402304        -0.863580        -0.265556
 H         3.025870        -2.105416         0.224701
 H         1.722258        -2.032278        -2.298373
 H         3.775854         1.270220        -1.308320
 H         2.057351         1.485663        -1.903697
 H         2.519533         2.848914         1.175080
