19
Iteration:  4839charge 0 multiplicity 1
 C        -0.018487        -0.433137         0.399018
 C         1.404982        -0.139875         0.183149
 C         2.728998        -0.150569         0.972467
 C         3.430664        -1.083498        -0.179031
 C         2.310234        -0.534980        -1.049977
 O         2.002570        -1.346537        -2.237918
 C         2.553270         0.953341        -1.327247
 C         2.152504         1.169879         0.173244
 O         1.876535         2.421874         0.738727
 H        -0.678302        -0.137302        -0.439681
 H        -0.135302        -1.480495         0.613712
 H        -0.551263         0.214977         1.046813
 H         2.761281        -0.152968         2.033944
 H         4.482136        -0.907077        -0.460370
 H         3.044103        -2.107684         0.101219
 H         1.651517        -0.802839        -2.952874
 H         3.594867         1.382070        -1.584472
 H         1.769570         1.381825        -1.984074
 H         0.923866         2.596886         0.671430
