19
Iteration:    79charge 0 multiplicity 1
 C        -0.155961        -0.465004         0.024086
 C         1.348414        -0.165873         0.141488
 C         2.644078        -0.075167         1.029707
 C         3.319365        -1.058894         0.065635
 C         2.404711        -0.512937        -1.067501
 O         2.052635        -1.293918        -2.114244
 C         2.651548         0.960036        -1.310068
 C         2.178939         1.110116         0.151283
 O         1.808705         2.393743         0.705964
 H        -0.721887        -0.219439         0.938691
 H        -0.437349        -0.078115        -0.928527
 H        -0.181935        -1.488566        -0.107355
 H         2.929538         0.083621         2.111046
 H         4.433643        -1.236886        -0.010472
 H         2.886321        -1.995894         0.269887
 H         2.425603        -0.839675        -2.947563
 H         3.623789         1.329359        -1.615870
 H         1.854705         1.408255        -1.969347
 H         2.370566         2.503551         1.494502
