19
Iteration:   811
 C        -0.112127        -0.374905         0.290623
 C         1.341205        -0.107734         0.103833
 C         2.665802        -0.134383         0.892377
 C         3.414448        -0.949543        -0.028749
 C         2.400565        -0.504033        -1.146482
 O         2.123789        -1.301723        -2.232848
 C         2.529992         1.054063        -1.392452
 C         2.111829         1.188679         0.057047
 O         1.855739         2.187193         0.917336
 H        -0.384964         0.264890         1.132497
 H        -0.686917        -0.102880        -0.665223
 H        -0.311627        -1.400400         0.596554
 H         2.766041        -0.142470         1.981540
 H         4.515282        -0.763401        -0.223642
 H         3.175356        -2.019123         0.144228
 H         2.126393        -2.200735        -1.877788
 H         3.576509         1.320145        -1.573966
 H         1.876893         1.586676        -2.138702
 H         1.123212         1.799527         1.466472
