19
Iteration:  3819
 C        -0.024169        -0.786152         0.444214
 C         1.281722        -0.120864         0.045406
 C         2.694593        -0.195240         0.794052
 C         3.405580        -0.964580        -0.283532
 C         2.239296        -0.411441        -1.207598
 O         1.871989        -1.151969        -2.260173
 C         2.543140         1.110906        -1.270870
 C         2.182892         1.129017         0.229641
 O         2.000412         2.299032         1.019737
 H        -0.755870        -0.246837         1.079953
 H        -0.509821        -1.038581        -0.475063
 H         0.122975        -1.672429         0.997054
 H         2.877013        -0.200601         1.837062
 H         4.333572        -0.594336        -0.703871
 H         3.346676        -2.074117        -0.040963
 H         2.481825        -0.893938        -3.011192
 H         3.428092         1.756214        -1.489151
 H         1.632067         1.643223        -1.686120
 H         2.861648         2.402780         1.439085
