19
Iteration:  1181
 C        -0.019089        -0.482110         0.322623
 C         1.394120        -0.086541        -0.007393
 C         2.651295        -0.120106         0.848849
 C         3.424068        -0.984101        -0.075846
 C         2.352975        -0.442224        -1.116772
 O         2.005780        -1.317524        -2.188601
 C         2.719509         1.032365        -1.308211
 C         2.161242         1.158842         0.066890
 O         1.675176         2.199367         0.944342
 H        -0.159206         0.091038         1.231154
 H        -0.854087        -0.086751        -0.381963
 H         0.055699        -1.557686         0.535384
 H         2.782796         0.004771         1.912423
 H         4.496588        -0.861522        -0.250930
 H         3.044004        -2.048176        -0.096990
 H         1.347307        -1.870217        -1.821921
 H         3.788447         1.227985        -1.480943
 H         2.029239         1.590517        -2.042480
 H         2.023766         3.054004         0.656011
