19
Iteration:  4115
 C        -0.070196        -0.381699         0.490205
 C         1.339451        -0.189197         0.085040
 C         2.685170        -0.177948         0.882815
 C         3.405256        -0.952087        -0.208538
 C         2.305627        -0.486228        -1.188980
 O         2.042882        -1.247232        -2.350503
 C         2.628256         1.044313        -1.296382
 C         2.193281         1.069769         0.166055
 O         1.822902         2.245446         0.953026
 H        -0.661731        -0.720398        -0.435688
 H        -0.475643        -0.882434         1.414678
 H        -0.304552         0.707239         0.443539
 H         2.630531        -0.406253         1.885827
 H         4.423154        -0.793126        -0.621201
 H         3.235878        -2.063073        -0.234804
 H         1.151048        -1.658779        -2.293360
 H         3.619759         1.311322        -1.591831
 H         1.748958         1.545284        -1.792922
 H         2.604049         2.434897         1.533509
