19
Iteration:  1920
 C         0.120468        -0.724670         0.466594
 C         1.507421        -0.170911         0.303677
 C         2.788815        -0.071802         0.829995
 C         3.498514        -0.849280        -0.218999
 C         2.309925        -0.467607        -1.142816
 O         2.003394        -1.380322        -2.146188
 C         2.359114         1.069391        -1.407460
 C         2.108137         1.183583         0.114192
 O         1.635195         2.353875         0.817723
 H        -0.485090        -0.459586         1.291838
 H        -0.326476        -0.545848        -0.503266
 H         0.328455        -1.758736         0.604137
 H         3.055559        -0.004076         1.857635
 H         4.491098        -0.568957        -0.559557
 H         3.530446        -1.907167        -0.007484
 H         1.380008        -0.892663        -2.765689
 H         3.245566         1.361321        -1.992755
 H         1.423331         1.327493        -1.877327
 H         2.485579         2.816486         0.986392
