19
Iteration:  2928charge 0 multiplicity 1
 C         0.030162        -0.608579         0.729035
 C         1.297574        -0.258269         0.130071
 C         2.696391        -0.091290         0.725704
 C         3.565719        -0.723127        -0.248035
 C         2.288073        -0.508150        -1.207534
 O         2.149709        -1.231767        -2.402125
 C         2.247928         1.104811        -1.377028
 C         2.077587         1.176892         0.107512
 O         1.858276         2.149286         1.008965
 H         0.028378        -0.184239         1.750497
 H        -0.847498        -0.151590         0.310026
 H        -0.077393        -1.696992         0.561991
 H         2.773791         0.076814         1.772647
 H         4.432867        -0.239848        -0.855844
 H         3.748284        -1.819039         0.020857
 H         2.177554        -2.168752        -2.330679
 H         3.048953         1.675578        -1.943011
 H         1.334491         1.277668        -1.947148
 H         2.471971         2.015470         1.739824
