19
Iteration:  1953
 C         0.101128        -0.829869         0.602190
 C         1.384417        -0.183289         0.125803
 C         2.811006         0.047480         0.785783
 C         3.470553        -0.856838        -0.232325
 C         2.338676        -0.511911        -1.186065
 O         1.960859        -1.402372        -2.161684
 C         2.609988         1.217156        -1.286966
 C         2.043504         1.186581         0.080105
 O         1.644604         2.319011         0.745342
 H        -0.161940        -0.581926         1.584227
 H        -0.837839        -0.575881         0.117705
 H         0.236732        -1.867617         0.380070
 H         2.947693         0.120819         1.860438
 H         4.455636        -0.576004        -0.599922
 H         3.396244        -1.845811         0.159960
 H         1.055281        -1.244538        -2.360409
 H         3.613306         1.567698        -1.572085
 H         1.905283         1.658221        -2.005445
 H         2.246978         2.417891         1.539410
