19
Iteration:  4640
 C        -0.072377        -0.504046         0.374864
 C         1.381475        -0.146900         0.174003
 C         2.684206        -0.056607         0.869504
 C         3.440000        -0.949017        -0.129971
 C         2.315053        -0.501819        -1.128797
 O         1.889891        -1.252047        -2.192647
 C         2.648401         0.989724        -1.276704
 C         2.134893         1.157279         0.098041
 O         1.909771         2.299240         0.802481
 H        -0.804311         0.263227        -0.096748
 H        -0.394261        -1.484990        -0.121559
 H        -0.361207        -0.803838         1.447756
 H         2.829166        -0.302500         1.855562
 H         4.548015        -0.925034        -0.190214
 H         3.172867        -1.882524         0.296737
 H         2.254227        -2.145688        -2.004521
 H         3.707822         1.077319        -1.667185
 H         1.999800         1.261213        -2.061140
 H         1.534992         2.904900         0.128559
