19
Iteration:  1560charge 0 multiplicity 1
 C         0.017508        -0.811306         0.399006
 C         1.423389        -0.212764         0.159839
 C         2.738837         0.001818         0.895594
 C         3.445139        -0.937012        -0.103238
 C         2.269594        -0.518559        -1.032856
 O         2.055603        -1.249899        -2.251757
 C         2.411681         1.075376        -1.349827
 C         2.059728         1.187561         0.114446
 O         1.890544         2.452633         0.731032
 H        -0.588138        -0.454030         1.336373
 H        -0.592414        -0.697337        -0.551377
 H         0.074422        -1.874032         0.529889
 H         3.030469         0.170040         1.928177
 H         4.566990        -0.813914        -0.278392
 H         3.356315        -1.948221         0.223982
 H         1.118933        -1.610491        -2.286419
 H         3.293011         1.402224        -1.980423
 H         1.597560         1.245735        -2.068414
 H         2.280163         2.498086         1.590529
