19
Iteration:  1119charge 0 multiplicity 1
 C        -0.129822        -0.656018         0.343786
 C         1.258309        -0.148964         0.297423
 C         2.604991        -0.168983         0.936478
 C         3.376242        -1.055296        -0.077752
 C         2.315660        -0.522415        -1.023206
 O         2.174789        -1.063998        -2.342004
 C         2.534197         0.930945        -1.267032
 C         2.030644         1.182796         0.101981
 O         2.069164         2.452731         0.664879
 H        -0.928149        -0.451342         1.156127
 H        -0.717336        -0.563467        -0.590393
 H        -0.004819        -1.716363         0.610433
 H         2.758468         0.004999         2.017555
 H         4.446536        -0.828437        -0.299454
 H         3.012008        -2.157073        -0.021564
 H         2.405491        -1.952435        -2.434984
 H         3.609623         1.301229        -1.452125
 H         2.021997         1.470928        -2.010810
 H         1.282643         2.515482         1.226350
