19
Iteration:   789
 C        -0.120436        -0.335913         0.342814
 C         1.341321        -0.227090         0.111634
 C         2.624520        -0.141393         0.973315
 C         3.478674        -0.938681        -0.060802
 C         2.391637        -0.561992        -1.141133
 O         2.066495        -1.200069        -2.357922
 C         2.595547         0.963498        -1.267030
 C         2.216687         1.084951         0.241286
 O         1.738282         2.279947         0.740029
 H        -0.457928         0.442411         1.037458
 H        -0.462642        -0.056749        -0.728529
 H        -0.457746        -1.343813         0.607511
 H         2.748752        -0.017758         2.059700
 H         4.504281        -0.618575        -0.422759
 H         3.519374        -1.993314         0.271105
 H         2.262733        -2.161838        -2.295333
 H         3.458299         1.279664        -1.862038
 H         1.679784         1.401377        -1.766425
 H         1.655122         2.242486         1.690024
