19
Iteration:  2271
 C         0.066827        -0.617047         0.534443
 C         1.538208        -0.233105         0.186119
 C         2.791212        -0.104426         0.850453
 C         3.526157        -0.777319        -0.272475
 C         2.345645        -0.446287        -1.210013
 O         1.987714        -1.357733        -2.196065
 C         2.441100         1.143801        -1.330856
 C         2.106276         1.122448         0.172448
 O         1.596654         2.199084         0.772187
 H        -0.512004         0.203981         1.053120
 H        -0.486415        -0.789747        -0.392326
 H        -0.046982        -1.363134         1.306847
 H         2.966260        -0.224878         1.915150
 H         4.480655        -0.251904        -0.554836
 H         3.697233        -1.832506        -0.137453
 H         1.079522        -1.285996        -2.405183
 H         3.439880         1.352450        -1.636702
 H         1.599684         1.622472        -1.751461
 H         2.305243         2.613722         1.330803
