19
Iteration:  1982charge 0 multiplicity 1
 C         0.163607        -0.735524         0.669420
 C         1.416536        -0.155777        -0.001106
 C         2.665131        -0.076040         0.866493
 C         3.485472        -0.791016        -0.150656
 C         2.348946        -0.512856        -1.161988
 O         2.020172        -1.260569        -2.204034
 C         2.567735         1.036500        -1.413823
 C         2.027382         1.159242         0.074987
 O         1.658744         2.316251         0.784037
 H         0.306365        -0.511964         1.773394
 H        -0.926815        -0.485972         0.456160
 H         0.143839        -1.926971         0.550317
 H         2.567702        -0.171179         1.919063
 H         4.496876        -0.404421        -0.365105
 H         3.640268        -1.945857         0.061007
 H         1.075939        -1.050629        -2.502277
 H         3.384742         1.413929        -2.044970
 H         1.670461         1.218934        -2.096141
 H         2.338508         2.455120         1.472473
