19
Iteration:  2647charge 0 multiplicity 1
 C         0.111495        -0.802870         0.379030
 C         1.393412        -0.196815         0.199169
 C         2.728401        -0.058209         0.824757
 C         3.486667        -0.788773        -0.221093
 C         2.322044        -0.366714        -1.162149
 O         1.982725        -1.375367        -2.076922
 C         2.376199         1.114335        -1.311111
 C         2.060407         1.099032         0.154558
 O         1.818655         2.300623         0.847536
 H        -0.741504        -0.178151        -0.066922
 H         0.166747        -1.771005        -0.130932
 H        -0.142961        -0.822450         1.438582
 H         2.979439         0.065316         1.920703
 H         4.494866        -0.487438        -0.570075
 H         3.571623        -1.891978        -0.093766
 H         1.721595        -0.964904        -2.962238
 H         3.311069         1.411188        -1.781547
 H         1.419696         1.374268        -1.795932
 H         2.311139         3.027280         0.480718
