19
Iteration:  1330
 C         0.073382        -0.793010         0.417669
 C         1.349352        -0.144044         0.075570
 C         2.710260        -0.122334         0.892372
 C         3.431489        -1.053880        -0.122806
 C         2.345192        -0.484880        -1.106519
 O         1.844733        -1.144307        -2.176683
 C         2.696336         1.044042        -1.228117
 C         2.096421         1.155508         0.190220
 O         1.736550         2.480359         0.689018
 H        -0.251541        -0.177274         1.300319
 H        -0.578849        -0.746624        -0.460609
 H         0.065639        -1.908885         0.793625
 H         2.780564        -0.111267         1.997168
 H         4.584069        -0.988866        -0.221966
 H         3.161004        -2.055805         0.021315
 H         2.313812        -1.941971        -2.417684
 H         3.741136         1.303183        -1.601811
 H         2.039921         1.656176        -1.855849
 H         2.062716         2.962308        -0.057489
