19
Iteration:  2041
 C         0.033404        -0.632698         0.610124
 C         1.393387        -0.194089         0.161735
 C         2.805388        -0.093377         0.827503
 C         3.567958        -0.872688        -0.290772
 C         2.304098        -0.483655        -1.124897
 O         2.120526        -1.313376        -2.227380
 C         2.317885         1.042392        -1.300476
 C         2.133964         1.184991         0.133481
 O         1.653705         2.239122         0.805118
 H        -0.337268         0.088803         1.334520
 H        -0.687262        -0.701746        -0.231920
 H         0.160960        -1.610074         1.137518
 H         2.868782         0.041754         1.949426
 H         4.592301        -0.491799        -0.454184
 H         3.510073        -1.917668        -0.078506
 H         1.717870        -0.926112        -2.974424
 H         3.225788         1.457871        -1.803669
 H         1.359372         1.349936        -1.768864
 H         2.189045         3.048588         0.560700
