19
Iteration:   112
 C        -0.115861        -0.349289         0.362350
 C         1.303201        -0.113354        -0.066992
 C         2.481838        -0.231843         0.955703
 C         3.377437        -1.056538         0.029898
 C         2.437718        -0.524354        -1.132283
 O         2.049317        -1.257832        -2.261346
 C         2.903875         0.929635        -1.192273
 C         2.162043         1.111222         0.197791
 O         1.628516         2.385314         0.623981
 H        -0.302538        -0.064401         1.418352
 H        -0.976515         0.060787        -0.120680
 H        -0.119409        -1.369698         0.358300
 H         2.542110        -0.147561         2.072260
 H         4.478460        -0.860693         0.043984
 H         3.207587        -2.029911         0.352171
 H         2.805692        -1.784082        -2.650299
 H         3.953554         1.149980        -1.270628
 H         2.297893         1.526228        -1.920862
 H         2.312481         2.865891         1.164016
