19
Iteration:  2372charge 0 multiplicity 1
 C         0.161972        -0.753641         0.673468
 C         1.435427        -0.212637         0.160640
 C         2.734716        -0.149277         0.913336
 C         3.467750        -0.972016        -0.205599
 C         2.315130        -0.431234        -1.271044
 O         2.057316        -1.346843        -2.296599
 C         2.524255         1.141166        -1.395037
 C         2.091593         1.199327         0.204930
 O         1.586365         2.449774         0.714892
 H        -0.287211         0.072326         1.334837
 H        -0.722715        -0.897557         0.074294
 H         0.338028        -1.731384         1.112901
 H         2.833580        -0.238158         1.992777
 H         4.578836        -0.923951        -0.338934
 H         3.311593        -2.075104        -0.095916
 H         1.173516        -1.122767        -2.749757
 H         3.553966         1.506615        -1.505011
 H         1.882706         1.850255        -1.985109
 H         1.927162         2.626171         1.598870
