19
Iteration:  2430charge 0 multiplicity 1
 C         0.058678        -0.816459         0.452334
 C         1.437025        -0.266769         0.072121
 C         2.686022         0.012057         0.887768
 C         3.557064        -0.797048        -0.153380
 C         2.422844        -0.476873        -1.183703
 O         1.896873        -1.335744        -2.185503
 C         2.519421         1.039290        -1.335678
 C         2.116220         1.177943         0.143043
 O         1.735273         2.397236         0.745110
 H         0.044850        -1.041912         1.504395
 H        -0.673481        -0.048976         0.151864
 H        -0.356937        -1.781567         0.095287
 H         2.603217        -0.089405         1.976359
 H         4.500996        -0.314245        -0.313419
 H         3.544085        -1.860499         0.155335
 H         0.987347        -1.424493        -2.026746
 H         3.350419         1.637279        -1.621697
 H         1.681854         1.459375        -1.910286
 H         2.298622         2.587470         1.546376
