19
Iteration:  4969charge 0 multiplicity 1
 C        -0.035783        -0.446674         0.396163
 C         1.379780        -0.154057         0.083858
 C         2.685974        -0.083143         0.917293
 C         3.450820        -0.941915        -0.099375
 C         2.325274        -0.566766        -1.089989
 O         1.926015        -1.326483        -2.240917
 C         2.605017         0.923042        -1.233230
 C         2.162131         1.131967         0.159244
 O         1.906007         2.339072         0.755138
 H        -0.763853         0.125349        -0.197612
 H        -0.474090        -1.487441         0.202628
 H        -0.311732        -0.502016         1.470626
 H         2.888444        -0.025340         1.980559
 H         4.574779        -0.714577        -0.305096
 H         3.311640        -1.945320         0.249809
 H         1.408264        -0.694215        -2.794008
 H         3.672329         1.259924        -1.504049
 H         1.859420         1.257883        -1.934718
 H         1.313014         2.740486         0.113368
