19
Iteration:  2773
 C        -0.022061        -0.654162         0.611480
 C         1.379917        -0.244193         0.199352
 C         2.804799        -0.003136         0.834417
 C         3.497542        -0.826256        -0.265064
 C         2.331997        -0.462384        -1.169276
 O         2.143339        -1.166167        -2.345081
 C         2.250501         1.055344        -1.380269
 C         2.025750         1.052916         0.098386
 O         1.822023         2.229118         0.904617
 H        -0.157938        -1.758853         0.468643
 H        -0.255326        -0.329103         1.667477
 H        -0.844987        -0.102720         0.017090
 H         3.024015        -0.079892         1.922046
 H         4.521177        -0.499225        -0.631248
 H         3.571695        -1.896900         0.029732
 H         2.147376        -2.108237        -1.999216
 H         3.077376         1.666633        -1.913215
 H         1.255273         1.116774        -1.866624
 H         2.654636         2.543421         1.309547
