19
Iteration:  2892
 C         0.063016        -0.734662         0.720913
 C         1.424414        -0.199274         0.150496
 C         2.749296        -0.135143         0.762538
 C         3.508137        -0.842153        -0.363025
 C         2.285526        -0.457768        -1.175902
 O         2.018921        -1.189433        -2.349454
 C         2.436407         1.155987        -1.265495
 C         2.106146         1.093531         0.169247
 O         1.677637         2.297941         0.830483
 H         0.124611        -1.117059         1.702078
 H        -0.750454        -0.014201         0.568204
 H        -0.244801        -1.649475         0.227151
 H         3.026157        -0.222172         1.805333
 H         4.505698        -0.493542        -0.892649
 H         3.494079        -1.986968        -0.086672
 H         2.132740        -2.105783        -2.147385
 H         3.380348         1.625816        -1.453040
 H         1.593329         1.665005        -1.758293
 H         2.370012         2.575299         1.454591
