19
Iteration:  3084
 C        -0.016062        -0.822065         0.667960
 C         1.335015        -0.292686         0.117583
 C         2.699222        -0.069632         0.796102
 C         3.575694        -0.768276        -0.362014
 C         2.284383        -0.365045        -1.215869
 O         2.108465        -1.200235        -2.389479
 C         2.261555         1.118986        -1.311401
 C         2.021425         1.101722         0.221340
 O         1.955675         2.283422         0.940012
 H        -0.848100        -0.105396         0.567802
 H        -0.281663        -1.586954        -0.009452
 H        -0.017213        -1.090771         1.700375
 H         2.952300         0.032646         1.839454
 H         4.481783        -0.145838        -0.769873
 H         3.606086        -1.792492        -0.047205
 H         1.764351        -2.027915        -1.978426
 H         3.104797         1.592745        -1.808190
 H         1.301083         1.384185        -1.803895
 H         2.639474         2.150691         1.639189
