19
Iteration:  2435
 C         0.042682        -0.784379         0.418502
 C         1.401099        -0.245878         0.025007
 C         2.716899        -0.012326         0.900850
 C         3.562231        -0.785102        -0.183566
 C         2.406798        -0.482789        -1.154185
 O         1.932062        -1.364469        -2.176338
 C         2.450277         1.057863        -1.302162
 C         2.114067         1.140820         0.193949
 O         1.753246         2.412468         0.728802
 H         0.175433        -1.028553         1.506893
 H        -0.732020        -0.018445         0.251939
 H        -0.178743        -1.782205        -0.054961
 H         2.520736        -0.043369         1.999275
 H         4.601264        -0.435869        -0.508421
 H         3.671373        -1.824500         0.124350
 H         0.946677        -1.491338        -1.992638
 H         3.466495         1.572792        -1.502051
 H         1.555838         1.491553        -1.766603
 H         2.340040         2.705669         1.423742
