19
Iteration:   955
 C        -0.064075        -0.474994         0.410312
 C         1.301234        -0.173520         0.001581
 C         2.578707        -0.140827         0.835752
 C         3.419012        -0.908795        -0.016523
 C         2.388213        -0.516997        -1.185233
 O         2.076654        -1.338731        -2.340139
 C         2.651865         1.081693        -1.292081
 C         2.043739         1.208696         0.065323
 O         1.812775         2.289837         0.929167
 H        -0.308454         0.066258         1.362453
 H        -0.811551        -0.355710        -0.322828
 H        -0.072931        -1.501634         0.793607
 H         2.719345        -0.043322         1.902439
 H         4.557458        -0.770052        -0.115497
 H         3.153241        -1.900245         0.316804
 H         2.051699        -2.323043        -2.062832
 H         3.645757         1.551231        -1.473393
 H         2.098131         1.481613        -2.122389
 H         2.567121         2.249795         1.567280
