19
Iteration:  2483
 C        -0.036847        -0.665042         0.454412
 C         1.383801        -0.197267         0.117923
 C         2.793580         0.065105         0.828521
 C         3.514979        -0.824106        -0.162308
 C         2.329768        -0.496563        -1.093319
 O         2.108728        -1.410367        -2.192518
 C         2.360593         1.021179        -1.425329
 C         2.058051         1.175469         0.141921
 O         1.770731         2.271288         0.924598
 H        -0.099569        -0.929072         1.533532
 H        -0.751534         0.111306         0.148596
 H        -0.205211        -1.586356        -0.079814
 H         3.049553         0.121824         1.856695
 H         4.567373        -0.648135        -0.386138
 H         3.496086        -1.888836         0.203862
 H         1.733724        -1.058904        -2.974742
 H         3.286214         1.417445        -1.877299
 H         1.376787         1.292441        -1.876155
 H         2.289026         3.012770         0.517674
