19
Iteration:   473
 C        -0.029341        -0.620838         0.217241
 C         1.266360        -0.045889        -0.093850
 C         2.459558        -0.055131         0.946166
 C         3.312533        -1.004090         0.091229
 C         2.389115        -0.503559        -1.164906
 O         1.951415        -1.368893        -2.251573
 C         2.828823         1.032492        -1.286796
 C         2.097235         1.224027         0.120464
 O         1.875540         2.365092         0.964942
 H        -0.339485        -0.437357         1.262920
 H        -0.710526        -0.351975        -0.472448
 H         0.191680        -1.700809        -0.049660
 H         2.253153        -0.151032         2.040695
 H         4.441861        -0.935070        -0.000679
 H         3.002151        -1.969885         0.356505
 H         2.673889        -1.805820        -2.648086
 H         3.911058         1.140619        -1.379610
 H         2.409342         1.625107        -2.151308
 H         2.691798         2.900211         0.789454
