19
Iteration:  4630
 C        -0.135215        -0.497092         0.351078
 C         1.354302        -0.214414         0.097910
 C         2.734663        -0.066276         0.899266
 C         3.390291        -0.970793        -0.109411
 C         2.303063        -0.545705        -1.054870
 O         1.983892        -1.231821        -2.196486
 C         2.597520         0.969097        -1.358313
 C         2.128303         1.126442         0.153228
 O         1.959086         2.338457         0.806339
 H        -0.886114         0.364921         0.145822
 H        -0.383482        -1.418161        -0.245081
 H        -0.161106        -0.582152         1.479758
 H         3.026806         0.138846         1.885865
 H         4.393669        -0.643042        -0.355792
 H         3.305301        -2.050675         0.087000
 H         1.955285        -2.192433        -2.068216
 H         3.619660         1.329003        -1.609030
 H         1.858285         1.363806        -1.989454
 H         1.375281         2.940967         0.280503
