19
Iteration:  4375
 C        -0.031074        -0.357232         0.471071
 C         1.448605        -0.097273         0.107633
 C         2.691045        -0.174030         0.923803
 C         3.402049        -1.098759        -0.093653
 C         2.291760        -0.503032        -1.130084
 O         1.975881        -1.265637        -2.257780
 C         2.720872         1.037689        -1.303088
 C         2.203343         1.152864         0.053039
 O         1.777127         2.227658         0.804135
 H        -0.196371        -1.395560         0.948647
 H        -0.294417         0.346377         1.329366
 H        -0.770564        -0.281320        -0.385540
 H         2.657865        -0.119887         2.113114
 H         4.480575        -0.961369        -0.559144
 H         3.213593        -2.149591        -0.005700
 H         1.091214        -1.038540        -2.591826
 H         3.869230         1.255179        -1.433910
 H         1.910710         1.363766        -1.889341
 H         0.942814         2.633281         0.499825
