19
Iteration:  4151
 C        -0.105766        -0.290902         0.502765
 C         1.308019        -0.168948         0.042756
 C         2.698536        -0.139858         0.824027
 C         3.405778        -1.009574        -0.213517
 C         2.331846        -0.468589        -1.133555
 O         2.015466        -1.266280        -2.382072
 C         2.593827         1.052830        -1.366336
 C         2.195135         1.108325         0.190793
 O         1.837524         2.170668         0.992031
 H        -0.755237        -0.306186        -0.391629
 H        -0.448723        -1.140109         1.140485
 H        -0.351829         0.682606         1.021243
 H         2.705438        -0.165284         1.958837
 H         4.464151        -0.842997        -0.339139
 H         3.269505        -2.135204        -0.055025
 H         2.351587        -2.155250        -2.154100
 H         3.464301         1.565590        -1.849231
 H         1.792969         1.532263        -1.958152
 H         2.391021         2.065375         1.808811
