19
Iteration:  2068charge 0 multiplicity 1
 C         0.121840        -0.606401         0.628447
 C         1.461934        -0.273468         0.183546
 C         2.746782        -0.044328         0.849910
 C         3.572404        -0.740831        -0.211545
 C         2.420332        -0.495594        -1.197943
 O         1.951993        -1.371550        -2.297203
 C         2.441369         1.032511        -1.414947
 C         2.056784         1.220704         0.115823
 O         1.610913         2.194902         0.884093
 H        -0.296954         0.356148         1.005898
 H        -0.370189        -0.687020        -0.345353
 H        -0.072694        -1.502495         1.191637
 H         2.706764        -0.031525         1.897642
 H         4.553863        -0.254083        -0.424412
 H         3.651828        -1.811793         0.158543
 H         1.120603        -1.104807        -2.638680
 H         3.421641         1.450017        -1.675556
 H         1.678045         1.220536        -2.204463
 H         2.399118         2.641211         1.315644
