19
Iteration:   713charge 0 multiplicity 1
 C         0.082624        -0.642951         0.393434
 C         1.303537        -0.075325        -0.056735
 C         2.463523        -0.008496         0.841220
 C         3.236138        -1.082614        -0.033053
 C         2.377740        -0.550603        -1.147884
 O         2.136639        -1.190826        -2.331539
 C         2.742558         0.950291        -1.271522
 C         2.102514         1.242973         0.076112
 O         1.845529         2.322113         0.996984
 H         0.023931        -0.092069         1.345376
 H        -0.782215        -0.357646        -0.221225
 H         0.123800        -1.734234         0.635102
 H         2.403805         0.118091         1.914443
 H         4.363446        -1.046004        -0.008850
 H         2.808314        -2.049867         0.181211
 H         1.830828        -2.071920        -2.177788
 H         3.755770         1.259993        -1.259443
 H         2.242535         1.273271        -2.222990
 H         1.477417         3.178660         0.656036
