19
Iteration:  1480
 C         0.026994        -0.509378         0.530384
 C         1.434388        -0.136915         0.097741
 C         2.799167        -0.092390         0.941531
 C         3.442438        -0.970261        -0.116924
 C         2.361470        -0.524555        -1.119947
 O         1.968242        -1.314747        -2.259804
 C         2.517730         0.996579        -1.416490
 C         2.185387         1.182808         0.144104
 O         1.591136         2.219859         0.775838
 H        -0.179915         0.039645         1.496116
 H        -0.848972        -0.207043        -0.163555
 H         0.023156        -1.604213         0.667104
 H         3.039881         0.084258         2.010785
 H         4.496196        -0.724487        -0.239806
 H         3.249625        -2.067789         0.161483
 H         2.468691        -0.772821        -2.913273
 H         3.523461         1.375904        -1.747572
 H         1.700242         1.539205        -1.895045
 H         2.017577         3.063855         0.753081
