19
Iteration:  4828
 C        -0.045841        -0.422307         0.399261
 C         1.399761        -0.129974         0.185133
 C         2.685207        -0.108055         0.853258
 C         3.401559        -1.056261        -0.120927
 C         2.299554        -0.545213        -1.106119
 O         2.002669        -1.329786        -2.166646
 C         2.561667         1.037554        -1.273727
 C         2.221761         1.147804         0.111983
 O         1.855358         2.318191         0.755306
 H        -0.439896        -0.410936        -0.643861
 H        -0.355490        -1.333260         0.881845
 H        -0.265122         0.262626         1.171436
 H         2.863380        -0.114773         1.903482
 H         4.498820        -0.988395        -0.392509
 H         3.373165        -2.166645         0.155501
 H         1.600332        -0.732625        -2.839229
 H         3.606292         1.105905        -1.746632
 H         1.837570         1.560497        -1.917329
 H         0.936745         2.488193         0.541273
