19
Iteration:  1758charge 0 multiplicity 1
 C         0.121035        -0.814941         0.499438
 C         1.414461        -0.167126         0.096300
 C         2.742965        -0.054473         0.880736
 C         3.496099        -0.904504        -0.243169
 C         2.344222        -0.476198        -1.162872
 O         2.043974        -1.418022        -2.153114
 C         2.359699         1.157084        -1.318009
 C         2.046686         1.194907         0.184542
 O         1.760902         2.407608         0.790184
 H        -0.298968        -0.493033         1.509295
 H        -0.659163        -0.527676        -0.229858
 H         0.310920        -1.812799         0.695411
 H         2.710964         0.007831         1.974895
 H         4.546222        -0.674366        -0.594030
 H         3.406527        -1.906491         0.056401
 H         1.419661        -1.089949        -2.771438
 H         3.192425         1.734269        -1.755985
 H         1.364803         1.240354        -1.728472
 H         2.488213         3.040244         0.522677
