19
Iteration:  1741charge 0 multiplicity 1
 C         0.099527        -0.814629         0.439909
 C         1.386629        -0.199291         0.181947
 C         2.763316         0.057248         0.850689
 C         3.453486        -0.806392        -0.120171
 C         2.309020        -0.479474        -1.144200
 O         2.065727        -1.405544        -2.261231
 C         2.318918         1.002090        -1.436385
 C         2.143125         1.216684         0.117787
 O         1.801771         2.381012         0.942161
 H        -0.328912        -0.360209         1.348041
 H        -0.686100        -0.641371        -0.303350
 H         0.211218        -1.979724         0.578326
 H         3.115603         0.053543         1.867022
 H         4.486777        -0.540739        -0.349255
 H         3.310057        -1.932030         0.066826
 H         1.123450        -1.359973        -2.299800
 H         3.282059         1.334580        -1.919767
 H         1.422845         1.467661        -1.939597
 H         2.160044         3.206363         0.498958
