19
Iteration:  4646
 C        -0.031262        -0.533776         0.400597
 C         1.350334        -0.104338         0.165995
 C         2.673264        -0.067933         0.880017
 C         3.444505        -0.961390        -0.112264
 C         2.355511        -0.461042        -1.118090
 O         1.834981        -1.286638        -2.218007
 C         2.665036         0.975453        -1.289546
 C         2.179858         1.136199         0.081400
 O         1.871063         2.312617         0.807245
 H        -0.594330         0.201214        -0.079129
 H        -0.208204        -1.459832        -0.108504
 H        -0.470854        -0.701451         1.351843
 H         2.619257        -0.272948         2.023315
 H         4.539045        -0.998632        -0.387756
 H         3.187396        -1.988136         0.335248
 H         2.329982        -2.094403        -2.065321
 H         3.719115         1.187725        -1.510059
 H         2.034847         1.501253        -2.120096
 H         1.558620         2.988901         0.150862
