19
Iteration:  1194charge 0 multiplicity 1
 C        -0.070328        -0.428213         0.350970
 C         1.387523        -0.192120         0.086276
 C         2.754066         0.000270         0.903683
 C         3.411506        -0.989158        -0.141015
 C         2.407056        -0.529226        -1.180047
 O         2.015588        -1.313828        -2.239227
 C         2.698261         1.068857        -1.333321
 C         2.165319         1.121685         0.173638
 O         1.632768         2.207901         0.881069
 H        -0.491488        -0.009474         1.304283
 H        -0.702516        -0.085812        -0.555162
 H        -0.466485        -1.416581         0.421619
 H         2.760104         0.055003         2.008109
 H         4.450159        -0.946230        -0.382752
 H         3.327223        -2.026010         0.367146
 H         1.101884        -1.738600        -2.095144
 H         3.762552         1.353764        -1.394094
 H         2.131305         1.580275        -2.105449
 H         2.373711         2.869829         0.949552
