19
Iteration:  3015charge 0 multiplicity 1
 C         0.223477        -0.844331         0.533257
 C         1.484855        -0.230165         0.176721
 C         2.862297        -0.104050         0.850707
 C         3.584827        -0.951737        -0.156508
 C         2.339572        -0.446606        -1.242267
 O         1.674031        -0.974234        -2.289819
 C         2.609690         1.144687        -1.366551
 C         2.067494         1.120695         0.089543
 O         1.569738         2.183305         0.908745
 H        -0.536594        -0.108386         0.753651
 H        -0.137862        -1.420888        -0.280738
 H         0.374555        -1.302351         1.536582
 H         2.928040         0.243934         1.906716
 H         4.528188        -0.400444        -0.604520
 H         3.207031        -2.005873        -0.007543
 H         1.494669        -1.876030        -2.057134
 H         3.661768         1.243802        -1.598652
 H         2.012726         1.622979        -2.079481
 H         2.145528         2.972073         1.018472
