19
Iteration:  3468charge 0 multiplicity 1
 C         0.063243        -0.823035         0.586503
 C         1.434010        -0.242340         0.094468
 C         2.872653        -0.234375         0.780650
 C         3.449347        -0.899239        -0.441690
 C         2.332102        -0.283630        -1.171958
 O         1.769140        -0.982741        -2.309195
 C         2.640333         1.146176        -1.283261
 C         2.119918         1.090588         0.174643
 O         1.662415         2.190005         0.995793
 H        -0.378397        -0.027065         1.277411
 H        -0.564070        -1.267937        -0.190154
 H         0.250889        -1.664989         1.271587
 H         3.209244        -0.401902         1.780808
 H         4.398268        -0.448100        -0.712871
 H         3.393680        -1.974340        -0.295118
 H         1.356030        -1.762167        -1.940918
 H         3.702296         1.351354        -1.525143
 H         2.062763         1.823240        -1.951368
 H         2.371926         2.587080         1.533248
