19
Iteration:  1581
 C        -0.015010        -0.788761         0.471423
 C         1.341977        -0.158650         0.248102
 C         2.751984        -0.029517         0.844680
 C         3.447333        -0.870684        -0.198293
 C         2.397823        -0.440994        -1.191422
 O         2.082709        -1.386923        -2.227980
 C         2.396516         1.061817        -1.220345
 C         2.051640         1.157293         0.162412
 O         1.875443         2.419921         0.660667
 H        -0.415033        -0.171066         1.427895
 H        -0.754606        -0.465641        -0.396316
 H         0.009012        -1.861515         0.538109
 H         2.850859         0.136333         1.907611
 H         4.598601        -0.805750        -0.299774
 H         3.208903        -1.903068         0.089050
 H         1.253740        -1.216525        -2.623366
 H         3.463659         1.463854        -1.533129
 H         1.730391         1.467325        -1.972757
 H         1.925106         2.235915         1.645804
