19
Iteration:  4296charge 0 multiplicity 1
 C        -0.151846        -0.553762         0.381874
 C         1.315511        -0.214198         0.058488
 C         2.621967        -0.109298         0.992513
 C         3.419851        -0.973883        -0.128368
 C         2.320388        -0.552597        -1.174433
 O         1.924046        -1.298658        -2.269371
 C         2.554158         1.037621        -1.308788
 C         2.209113         1.106722         0.214819
 O         2.070489         2.437033         0.791258
 H        -0.484135        -0.359193         1.440095
 H        -0.914130         0.075232        -0.225299
 H        -0.396567        -1.671586         0.231249
 H         2.522229        -0.261091         2.003724
 H         4.535473        -0.821480        -0.282770
 H         3.318210        -2.060242         0.025336
 H         2.360453        -0.831824        -3.006258
 H         3.672371         1.384800        -1.675176
 H         1.810550         1.554500        -1.916653
 H         1.859137         2.460906         1.731656
