19
Iteration:   559charge 0 multiplicity 1
 C        -0.063124        -0.309530         0.334971
 C         1.337049        -0.175693         0.082302
 C         2.556808        -0.191911         0.935194
 C         3.328211        -0.974389        -0.042428
 C         2.377928        -0.500991        -1.112228
 O         2.237504        -1.165137        -2.281159
 C         2.639386         0.954919        -1.264924
 C         2.165060         1.048682         0.128437
 O         1.795889         2.224117         0.819409
 H        -0.412385         0.493620         1.002914
 H        -0.544323        -0.034834        -0.569654
 H        -0.695873        -1.200046         0.716609
 H         2.791858        -0.223594         2.014888
 H         4.372550        -0.679290        -0.181437
 H         3.281369        -2.038543         0.109876
 H         1.653381        -1.949151        -2.189136
 H         3.666313         1.037455        -1.554480
 H         1.911302         1.467723        -1.927774
 H         1.020865         2.540462         0.343855
