19
Iteration:  2355charge 0 multiplicity 1
 C         0.097478        -0.670827         0.746607
 C         1.362431        -0.159114         0.115906
 C         2.671915        -0.215179         0.835411
 C         3.478734        -0.864681        -0.248639
 C         2.378573        -0.435164        -1.164677
 O         2.096127        -1.311479        -2.252739
 C         2.450695         1.113742        -1.272573
 C         2.091261         1.115112         0.133603
 O         1.683373         2.332056         0.679882
 H        -0.488229         0.072943         1.257504
 H        -0.574516        -1.137168        -0.042569
 H         0.227797        -1.576044         1.416807
 H         2.752197        -0.223585         1.915688
 H         4.450544        -0.415709        -0.492950
 H         3.535580        -1.970043        -0.191407
 H         1.700525        -0.788334        -3.032983
 H         3.295860         1.618312        -1.770217
 H         1.582302         1.433937        -1.861372
 H         2.331825         2.618213         1.326090
