19
Iteration:  3210charge 0 multiplicity 1
 C         0.102647        -0.808536         0.499088
 C         1.428333        -0.250395         0.152550
 C         2.837858        -0.157801         0.825214
 C         3.510632        -0.847056        -0.291874
 C         2.274089        -0.411946        -1.212504
 O         1.900796        -1.126094        -2.258174
 C         2.352299         1.147570        -1.279123
 C         2.088378         1.069154         0.148133
 O         1.800622         2.223666         1.005023
 H        -0.072010        -1.647126        -0.191843
 H         0.115100        -1.101006         1.606593
 H        -0.768164        -0.084127         0.531664
 H         3.158067        -0.321064         1.842168
 H         4.505106        -0.432399        -0.727098
 H         3.419659        -1.963477        -0.108888
 H         1.908196        -0.698922        -3.097137
 H         3.246729         1.848486        -1.570733
 H         1.478933         1.550293        -1.857663
 H         2.309184         2.962466         0.647064
