19
Iteration:  1968
 C         0.171663        -0.805355         0.650588
 C         1.374273        -0.179186         0.077944
 C         2.621905        -0.076166         0.823512
 C         3.547581        -0.830933        -0.144208
 C         2.355822        -0.372066        -1.158490
 O         1.967194        -1.325305        -2.163784
 C         2.543414         1.092764        -1.466395
 C         2.071551         1.185814         0.024885
 O         1.658583         2.288863         0.766121
 H         0.218485        -0.677462         1.838961
 H        -0.658146        -0.246006         0.163410
 H         0.195679        -1.896490         0.604159
 H         2.773435         0.055043         1.937679
 H         4.609380        -0.450731        -0.315263
 H         3.472467        -1.937517        -0.120711
 H         1.037636        -1.141649        -2.348292
 H         3.616338         1.267218        -1.334588
 H         1.950233         1.653004        -2.217293
 H         2.190015         2.351361         1.560893
