19
Iteration:   875charge 0 multiplicity 1
 C        -0.048867        -0.695464         0.322746
 C         1.326815        -0.196620         0.048292
 C         2.608274        -0.142860         0.995023
 C         3.418539        -1.025956        -0.031674
 C         2.407936        -0.552466        -1.010715
 O         2.006415        -0.976555        -2.260698
 C         2.626022         0.967081        -1.251025
 C         2.085902         1.117734         0.151293
 O         1.847363         2.379337         0.669870
 H        -0.224890        -0.221720         1.259267
 H        -0.989073        -0.373425        -0.302862
 H        -0.256714        -1.706003         0.481754
 H         2.762659        -0.015529         2.078769
 H         4.356750        -0.582214        -0.288171
 H         3.375194        -2.150216         0.274509
 H         1.854463        -1.973763        -2.416042
 H         3.710323         1.167938        -1.408851
 H         1.873932         1.274516        -2.061262
 H         2.440837         3.060695         0.259722
