19
Iteration:  4619charge 0 multiplicity 1
 C        -0.102729        -0.479618         0.392895
 C         1.280903        -0.140217         0.127737
 C         2.682458        -0.070172         0.974292
 C         3.448956        -0.983977        -0.082566
 C         2.323325        -0.535170        -1.098784
 O         2.057999        -1.278828        -2.279444
 C         2.488163         0.976083        -1.334078
 C         2.186744         1.075593         0.066750
 O         2.003204         2.369149         0.833283
 H        -0.685148         0.458913        -0.014010
 H        -0.616013        -1.360618        -0.125060
 H        -0.443880        -0.819548         1.433990
 H         2.793707         0.189031         1.965430
 H         4.356396        -0.758038        -0.615012
 H         3.533594        -2.049071         0.167785
 H         1.651655        -2.086626        -1.942438
 H         3.489258         1.336047        -1.664980
 H         1.756864         1.377820        -1.941468
 H         1.166325         2.730450         0.433625
