19
Iteration:  4191charge 0 multiplicity 1
 C        -0.157308        -0.382655         0.449575
 C         1.345289        -0.134346         0.162583
 C         2.718642        -0.255781         0.913878
 C         3.468002        -1.097549        -0.189371
 C         2.324885        -0.457934        -1.206685
 O         1.881570        -1.172101        -2.306331
 C         2.653380         1.051140        -1.210431
 C         2.224286         1.097831         0.192076
 O         1.811262         2.260427         0.812524
 H        -0.857221         0.203429        -0.197940
 H        -0.305184        -1.463967         0.271310
 H        -0.514049        -0.289013         1.479905
 H         2.759729        -0.339728         1.971408
 H         4.502856        -0.801533        -0.466332
 H         3.364929        -2.174097        -0.006447
 H         2.726173        -1.367036        -2.766975
 H         3.601044         1.293819        -1.602160
 H         1.827747         1.357250        -1.918192
 H         2.534363         2.890877         0.910521
