19
Iteration:  3005charge 0 multiplicity 1
 C         0.193435        -0.809553         0.581967
 C         1.552150        -0.231601         0.156851
 C         2.785055        -0.075463         0.828073
 C         3.544588        -0.908070        -0.241988
 C         2.366703        -0.404091        -1.182249
 O         1.648120        -0.976290        -2.261076
 C         2.637934         1.063981        -1.376027
 C         2.153858         1.156868         0.107787
 O         1.533318         2.135239         0.906601
 H        -0.467949         0.042587         0.740902
 H        -0.210304        -1.353511        -0.235812
 H         0.104763        -1.475621         1.463467
 H         2.895464        -0.073648         1.934501
 H         4.667229        -0.713898        -0.512784
 H         3.682718        -1.989358        -0.152671
 H         1.693558        -1.942480        -2.231216
 H         3.670549         1.404647        -1.454833
 H         1.984850         1.605812        -1.994185
 H         1.913584         3.025659         0.732709
