19
Iteration:  1904charge 0 multiplicity 1
 C         0.054019        -0.740998         0.482613
 C         1.403263        -0.149992         0.142942
 C         2.854576        -0.047533         0.957274
 C         3.577731        -0.803308        -0.185819
 C         2.362820        -0.465763        -1.091500
 O         1.982606        -1.328313        -2.126754
 C         2.287571         1.067313        -1.424208
 C         2.068681         1.144538         0.073736
 O         1.757963         2.194486         0.784410
 H        -0.350117        -0.002789         1.247439
 H        -0.720605        -0.622633        -0.303501
 H         0.016018        -1.860224         0.733855
 H         3.100991         0.244813         2.016508
 H         4.538554        -0.329702        -0.499988
 H         3.580369        -1.938096        -0.104816
 H         1.627014        -0.762026        -2.896165
 H         3.083732         1.750559        -1.788613
 H         1.301434         1.223988        -1.976630
 H         2.330104         2.945199         0.708708
