19
Iteration:  1527
 C         0.074838        -0.763343         0.455535
 C         1.348562        -0.146158         0.040125
 C         2.681783        -0.075089         0.913388
 C         3.462051        -0.851507        -0.135122
 C         2.336086        -0.454990        -1.137089
 O         1.874709        -1.320317        -2.206300
 C         2.628747         1.133271        -1.351526
 C         2.085100         1.176136         0.161171
 O         1.778469         2.343364         0.762040
 H        -0.393892        -0.285797         1.379562
 H        -0.675176        -0.726615        -0.362532
 H         0.361200        -1.758180         0.598508
 H         2.682948        -0.020745         1.988976
 H         4.501514        -0.443266        -0.320455
 H         3.418196        -1.866464         0.158813
 H         1.840063        -2.237968        -2.025174
 H         3.640571         1.336798        -1.772538
 H         1.800576         1.373851        -1.981897
 H         2.617296         2.619777         1.193219
