19
Iteration:  3165charge 0 multiplicity 1
 C         0.156993        -0.652666         0.571618
 C         1.508910        -0.194439         0.087972
 C         2.937417        -0.138032         0.800018
 C         3.535044        -0.911900        -0.373535
 C         2.362598        -0.370232        -1.181552
 O         1.689616        -1.104334        -2.265653
 C         2.551897         1.152500        -1.261627
 C         2.110646         1.104249         0.197020
 O         1.505283         2.053265         0.981964
 H        -0.422843        -0.993965        -0.295594
 H         0.370722        -1.413715         1.425747
 H        -0.317561         0.129238         1.223187
 H         3.189243        -0.036613         1.878292
 H         4.616325        -0.581026        -0.604906
 H         3.571209        -2.046812        -0.152664
 H         2.282682        -1.564698        -2.845092
 H         3.676288         1.389686        -1.483023
 H         1.941480         1.772793        -2.023923
 H         1.649975         2.856632         0.455538
