19
Iteration:  1268
 C        -0.071036        -0.502630         0.505962
 C         1.279086        -0.137156         0.111396
 C         2.684074        -0.064473         0.832454
 C         3.412709        -0.941538        -0.145689
 C         2.346972        -0.545652        -1.134377
 O         2.114720        -1.426279        -2.242177
 C         2.619807         1.082839        -1.343945
 C         2.010832         1.179382         0.120750
 O         1.890849         2.323086         0.884207
 H        -0.392785        -0.099712         1.448354
 H        -0.790196        -0.149888        -0.279708
 H        -0.316114        -1.594412         0.544529
 H         2.793592        -0.101472         1.931310
 H         4.365144        -0.678041        -0.632206
 H         3.456406        -2.066416        -0.031065
 H         2.602553        -1.090116        -2.993315
 H         3.646442         1.293842        -1.698071
 H         1.805667         1.490866        -2.064029
 H         1.017546         2.365597         1.260169
