19
Iteration:  2584
 C         0.045067        -0.724132         0.604718
 C         1.406654        -0.154906         0.133735
 C         2.728720         0.033740         0.836436
 C         3.524991        -0.886242        -0.098193
 C         2.365948        -0.450009        -1.128175
 O         2.020502        -1.193685        -2.280512
 C         2.501967         1.039582        -1.406037
 C         2.076608         1.153585         0.079755
 O         1.678098         2.202395         0.778977
 H        -0.689667         0.013176         0.689778
 H        -0.400830        -1.456527        -0.127007
 H         0.236944        -1.408133         1.443480
 H         2.773369         0.305639         1.941589
 H         4.496583        -0.493048        -0.451513
 H         3.602673        -1.970076         0.111972
 H         1.271869        -1.841495        -2.199864
 H         3.351922         1.550467        -1.914784
 H         1.582140         1.317015        -1.974578
 H         2.456586         2.281811         1.343834
