19
Iteration:   973charge 0 multiplicity 1
 C        -0.120124        -0.440938         0.371975
 C         1.279017        -0.196688         0.112674
 C         2.622574        -0.048077         0.985690
 C         3.473502        -0.930373        -0.126133
 C         2.323472        -0.504592        -1.130346
 O         2.148713        -1.213534        -2.310224
 C         2.553612         0.957119        -1.318991
 C         2.150336         1.094996         0.136943
 O         1.805890         2.220306         0.839042
 H        -0.543119         0.238332         1.100741
 H        -0.674600        -0.082999        -0.615209
 H        -0.538404        -1.404959         0.646384
 H         2.689306        -0.060734         2.093559
 H         4.354676        -0.486922        -0.497140
 H         3.460162        -2.070569         0.073489
 H         2.211899        -2.210904        -2.113727
 H         3.596980         1.273944        -1.624602
 H         1.798112         1.488603        -1.988195
 H         2.642911         2.601122         1.191731
