19
Iteration:   111
 C        -0.109083        -0.348967         0.354449
 C         1.309367        -0.111719        -0.065370
 C         2.486788        -0.228500         0.956319
 C         3.378401        -1.060000         0.030509
 C         2.429349        -0.533358        -1.127752
 O         2.048733        -1.258716        -2.259787
 C         2.884717         0.929974        -1.186602
 C         2.163329         1.116526         0.199319
 O         1.632938         2.389925         0.620104
 H        -0.290522        -0.087546         1.378563
 H        -0.921691         0.086454        -0.163207
 H        -0.098802        -1.401235         0.340173
 H         2.539218        -0.150097         2.069552
 H         4.452973        -0.876430         0.044797
 H         3.222041        -2.067270         0.345001
 H         2.800172        -1.735390        -2.641806
 H         3.928533         1.160412        -1.252099
 H         2.285891         1.523782        -1.896465
 H         2.308575         2.852852         1.179325
