19
Iteration:  2676
 C         0.089640        -0.742194         0.470516
 C         1.437086        -0.182463         0.184952
 C         2.846337         0.031098         0.780742
 C         3.619519        -0.918786        -0.127922
 C         2.350915        -0.505375        -1.136971
 O         1.782171        -1.242702        -2.227683
 C         2.496402         1.054799        -1.329702
 C         2.110750         1.143463         0.099292
 O         1.575397         2.271007         0.853677
 H        -0.533976        -0.509367        -0.445749
 H         0.163355        -1.807047         0.697705
 H        -0.131977        -0.408280         1.487177
 H         3.109927         0.055212         1.857259
 H         4.596017        -0.600534        -0.555721
 H         3.760867        -1.879533         0.378401
 H         2.215847        -0.788974        -2.999552
 H         3.419100         1.374921        -1.831641
 H         1.655638         1.248325        -2.011983
 H         2.257009         2.864982         1.231854
