19
Iteration:  2427
 C         0.071618        -0.833537         0.468251
 C         1.459488        -0.274454         0.104185
 C         2.666971         0.014137         0.876719
 C         3.548088        -0.804739        -0.124322
 C         2.414587        -0.475450        -1.192056
 O         1.890384        -1.315065        -2.194300
 C         2.558415         1.040860        -1.352310
 C         2.109954         1.201097         0.106850
 O         1.723660         2.384090         0.756122
 H        -0.066121        -1.002731         1.609214
 H        -0.657643        -0.098822         0.134247
 H        -0.389674        -1.742333         0.123454
 H         2.729288        -0.106400         1.919691
 H         4.499895        -0.274349        -0.216582
 H         3.496965        -1.875431         0.148744
 H         0.911855        -1.381581        -2.016943
 H         3.381042         1.653963        -1.755335
 H         1.735979         1.417813        -2.040128
 H         2.247232         2.463700         1.558611
