19
Iteration:  2288charge 0 multiplicity 1
 C         0.045276        -0.587823         0.523046
 C         1.496592        -0.287809         0.084063
 C         2.820401        -0.102865         0.849749
 C         3.489515        -0.845788        -0.305153
 C         2.241527        -0.402114        -1.115283
 O         2.115956        -1.360624        -2.139420
 C         2.358262         1.104829        -1.379085
 C         2.189028         1.155907         0.164941
 O         1.618994         2.223096         0.869806
 H        -0.376469         0.362508         0.877351
 H        -0.383137        -1.098460        -0.377525
 H         0.009092        -1.378949         1.334831
 H         3.048509         0.044206         1.900353
 H         4.487537        -0.644878        -0.664560
 H         3.255636        -1.952447        -0.237498
 H         1.372218        -1.065167        -2.621688
 H         3.139153         1.752826        -1.910327
 H         1.380673         1.439637        -1.908355
 H         2.282845         2.890143         1.171733
