19
Iteration:  2374charge 0 multiplicity 1
 C         0.170157        -0.754276         0.670100
 C         1.440407        -0.209928         0.147816
 C         2.751868        -0.137883         0.905193
 C         3.461319        -0.963391        -0.202932
 C         2.311023        -0.443418        -1.254339
 O         2.052936        -1.341820        -2.299626
 C         2.540347         1.141096        -1.390087
 C         2.089828         1.188018         0.203395
 O         1.579191         2.455568         0.722823
 H        -0.274349         0.021489         1.364924
 H        -0.730905        -0.902278         0.055718
 H         0.273927        -1.772525         1.073066
 H         2.827271        -0.214731         1.952807
 H         4.538526        -0.953631        -0.386804
 H         3.229897        -2.066856        -0.018546
 H         1.149102        -1.155543        -2.702429
 H         3.530482         1.486056        -1.558459
 H         1.932474         1.846693        -2.012938
 H         1.890041         2.623586         1.612246
