19
Iteration:  3170
 C         0.136593        -0.653746         0.576262
 C         1.491639        -0.229045         0.094124
 C         2.935107        -0.117438         0.797001
 C         3.541508        -0.909333        -0.314752
 C         2.370709        -0.398291        -1.224646
 O         1.669024        -1.090429        -2.276489
 C         2.555402         1.151187        -1.291279
 C         2.117063         1.146465         0.234559
 O         1.535246         2.050848         0.976559
 H        -0.459192        -1.152665        -0.212452
 H         0.428692        -1.371707         1.295239
 H        -0.482515         0.095303         1.109279
 H         3.305259        -0.181549         1.808444
 H         4.497265        -0.595536        -0.666013
 H         3.844303        -1.897268        -0.027948
 H         2.311445        -1.464562        -2.959088
 H         3.604267         1.328010        -1.433404
 H         1.968600         1.628019        -2.012096
 H         1.575166         2.937328         0.559786
