19
Iteration:  1332
 C         0.060679        -0.800545         0.405661
 C         1.327734        -0.130361         0.100467
 C         2.742829        -0.122403         0.911800
 C         3.429755        -1.037097        -0.147587
 C         2.326535        -0.489306        -1.095965
 O         1.843862        -1.142917        -2.187885
 C         2.723887         1.020746        -1.226610
 C         2.098568         1.148834         0.178229
 O         1.730909         2.489961         0.688764
 H        -0.230136        -0.221203         1.249704
 H        -0.541569        -0.791782        -0.447640
 H         0.036966        -1.902789         0.785353
 H         2.772562        -0.152234         2.029131
 H         4.565940        -0.976143        -0.188842
 H         3.190681        -2.065636         0.032706
 H         2.329763        -1.914553        -2.352160
 H         3.699681         1.341689        -1.596508
 H         2.007934         1.657285        -1.853751
 H         2.099994         2.979319        -0.069775
