19
Iteration:   687
 C        -0.140411        -0.802277         0.395334
 C         1.154366        -0.017068         0.022644
 C         2.511576        -0.074469         0.962815
 C         3.269927        -1.002455        -0.026399
 C         2.341513        -0.448680        -1.176954
 O         2.161663        -1.188708        -2.314408
 C         2.767613         1.073552        -1.265279
 C         2.171798         1.106260         0.166511
 O         2.034591         2.350778         0.754013
 H        -0.445602        -0.370686         1.361047
 H        -1.044002        -0.485655        -0.378004
 H        -0.012620        -1.860389         0.477300
 H         2.534338        -0.005887         2.060018
 H         4.363312        -0.827886        -0.121195
 H         2.990532        -2.118840         0.133519
 H         2.078856        -2.124673        -2.090636
 H         3.875114         1.358981        -1.315583
 H         2.174229         1.750173        -1.903467
 H         1.102744         2.655565         0.901755
