19
Iteration:  4036
 C         0.031692        -0.653263         0.361713
 C         1.328545        -0.091732         0.126901
 C         2.647545        -0.148258         0.881692
 C         3.328269        -1.076901        -0.152854
 C         2.325767        -0.427317        -1.150641
 O         1.746910        -1.159485        -2.311889
 C         2.691853         1.125613        -1.271315
 C         2.204039         1.152048         0.173152
 O         1.901494         2.300137         0.898861
 H         0.284638        -1.761224         0.165327
 H        -0.045288        -0.605741         1.522579
 H        -0.892692        -0.314597        -0.152138
 H         2.550117        -0.477486         1.989758
 H         4.405041        -0.870730        -0.436638
 H         3.192909        -2.165933         0.136595
 H         2.469539        -1.534741        -2.855225
 H         3.751342         1.366534        -1.477885
 H         2.119057         1.532493        -2.128118
 H         2.742899         2.601998         1.332358
