19
Iteration:  1035
 C        -0.062756        -0.386558         0.337943
 C         1.402801        -0.128506         0.053210
 C         2.673205        -0.093243         0.865957
 C         3.434724        -0.995461        -0.027678
 C         2.358582        -0.501850        -1.154590
 O         2.023825        -1.186090        -2.244783
 C         2.702253         0.973752        -1.351217
 C         2.190019         1.111690         0.156499
 O         1.597791         2.144976         0.874597
 H        -0.218607         0.166949         1.232582
 H        -0.599426         0.063405        -0.430457
 H        -0.285145        -1.484335         0.335159
 H         2.824265        -0.005645         1.967687
 H         4.517117        -0.783344        -0.239586
 H         3.358542        -2.049247         0.157633
 H         1.940114        -2.133799        -1.862602
 H         3.754243         1.149820        -1.467526
 H         2.010855         1.524037        -1.976941
 H         2.019242         3.020747         0.755464
