19
Iteration:  4954charge 0 multiplicity 1
 C        -0.147779        -0.535427         0.412191
 C         1.339951        -0.184582         0.180937
 C         2.714089        -0.119706         0.958681
 C         3.435796        -1.059854        -0.083400
 C         2.345524        -0.524599        -1.106262
 O         1.981786        -1.272416        -2.185807
 C         2.636563         0.996892        -1.366019
 C         2.182136         1.132553         0.133383
 O         1.885119         2.362183         0.711869
 H        -0.679562         0.391472         0.115237
 H        -0.118015        -1.527759        -0.069394
 H        -0.291221        -0.408995         1.590205
 H         2.742710        -0.205145         2.048660
 H         4.367168        -0.662571        -0.399697
 H         3.373129        -2.118004         0.170135
 H         1.298337        -0.725394        -2.593478
 H         3.563941         1.398756        -1.777031
 H         1.864612         1.524111        -1.969328
 H         1.600982         2.996123         0.031305
