19
Iteration:  3043
 C         0.169001        -0.921354         0.570169
 C         1.400783        -0.221565         0.159632
 C         2.799335        -0.031094         0.787735
 C         3.459196        -0.888467        -0.332275
 C         2.325106        -0.444296        -1.190353
 O         1.915592        -1.088823        -2.296874
 C         2.454520         1.096891        -1.258188
 C         2.152506         1.168331         0.184166
 O         1.720021         2.319155         0.890880
 H        -0.647042        -0.162771         0.511511
 H        -0.191833        -1.683447        -0.240216
 H         0.247815        -1.598519         1.453114
 H         2.697510        -0.140738         1.850262
 H         4.399534        -0.681704        -0.732337
 H         3.297246        -1.940338        -0.054667
 H         1.228740        -1.685237        -2.036775
 H         3.372584         1.508589        -1.805701
 H         1.593889         1.522689        -1.915208
 H         2.366338         2.659247         1.524116
