19
Iteration:  3150
 C         0.204340        -0.647830         0.625152
 C         1.532535        -0.314396         0.140177
 C         2.832338        -0.130862         0.770799
 C         3.507080        -0.914767        -0.414339
 C         2.306596        -0.396397        -1.232337
 O         1.779192        -1.115800        -2.212388
 C         2.571529         1.220206        -1.284397
 C         2.163828         1.145261         0.199134
 O         1.502191         2.100881         0.961090
 H        -0.504547        -0.641858        -0.223993
 H         0.090218        -1.611781         1.021654
 H        -0.221835         0.148232         1.199677
 H         3.007218        -0.303369         1.826403
 H         4.595541        -0.900851        -0.957166
 H         3.373417        -2.045753        -0.326107
 H         2.518849        -1.663304        -2.525807
 H         3.481157         1.690892        -1.481107
 H         1.672981         1.582843        -1.806593
 H         1.711037         3.019449         0.762161
