19
Iteration:  2238
 C         0.041490        -0.704419         0.612489
 C         1.502187        -0.248022         0.110691
 C         2.807772         0.029170         0.772583
 C         3.558686        -0.870380        -0.238680
 C         2.361991        -0.565261        -1.126412
 O         1.971264        -1.234743        -2.245054
 C         2.558413         1.005143        -1.342546
 C         2.020486         1.224657         0.072985
 O         1.553119         2.260341         0.855465
 H        -0.052843        -0.051078         1.526052
 H        -0.738055        -0.492861        -0.130663
 H        -0.090853        -1.788217         0.760479
 H         2.910055         0.057609         1.833884
 H         4.509933        -0.423215        -0.638315
 H         3.780944        -1.838490         0.188727
 H         0.989035        -1.115073        -2.204658
 H         3.526829         1.297989        -1.700890
 H         1.965496         1.448921        -2.085186
 H         2.250485         2.612128         1.456558
