19
Iteration:   948charge 0 multiplicity 1
 C        -0.018193        -0.550527         0.448786
 C         1.293366        -0.092863        -0.056059
 C         2.504381        -0.101698         0.888965
 C         3.438162        -1.007574        -0.059744
 C         2.424365        -0.496185        -1.177927
 O         2.067075        -1.343362        -2.310005
 C         2.697681         1.112118        -1.340619
 C         2.043674         1.219017         0.051574
 O         1.797472         2.325771         0.943136
 H        -0.257482         0.099495         1.321572
 H        -0.881060        -0.373339        -0.213368
 H        -0.119390        -1.638507         0.809344
 H         2.712416        -0.212729         1.956998
 H         4.504114        -0.811356        -0.251793
 H         3.092884        -2.023293         0.161112
 H         1.991568        -2.276302        -1.955845
 H         3.693002         1.543094        -1.369161
 H         2.068185         1.373495        -2.208041
 H         2.419082         2.193675         1.659230
