19
Iteration:  3434charge 0 multiplicity 1
 C         0.143406        -0.818371         0.457825
 C         1.462894        -0.185248         0.194583
 C         2.893071        -0.171607         0.826690
 C         3.470091        -0.997584        -0.234838
 C         2.310390        -0.459826        -1.199784
 O         1.805140        -1.000135        -2.528366
 C         2.376813         1.149967        -1.265321
 C         2.127489         1.126918         0.284660
 O         1.856475         2.225788         1.068786
 H        -0.536294        -0.125421         1.012197
 H        -0.487137        -1.108824        -0.385536
 H         0.500749        -1.672781         1.054155
 H         3.002692        -0.352667         1.857615
 H         4.403325        -0.574086        -0.630758
 H         3.583983        -2.084239        -0.106240
 H         0.875306        -1.056834        -2.253505
 H         3.201838         1.755525        -1.675026
 H         1.397428         1.432228        -1.676708
 H         1.727664         3.019903         0.505325
