19
Iteration:  2645charge 0 multiplicity 1
 C         0.105333        -0.806943         0.369016
 C         1.387572        -0.189419         0.206171
 C         2.723783        -0.071251         0.807165
 C         3.485376        -0.788885        -0.223308
 C         2.317707        -0.375091        -1.150966
 O         1.996870        -1.384724        -2.080877
 C         2.371562         1.132527        -1.307188
 C         2.070020         1.117450         0.169665
 O         1.825807         2.297548         0.841489
 H        -0.825591        -0.221271         0.029104
 H         0.187958        -1.739100        -0.151207
 H        -0.157160        -0.809895         1.410699
 H         2.979074         0.029188         1.891756
 H         4.474409        -0.445346        -0.598846
 H         3.577037        -1.879117        -0.062386
 H         1.692525        -1.054305        -2.928925
 H         3.283907         1.435021        -1.759860
 H         1.416613         1.404133        -1.758625
 H         2.330714         3.020897         0.437512
