19
Iteration:  3842charge 0 multiplicity 1
 C        -0.019326        -0.827488         0.416896
 C         1.336967        -0.179117         0.139843
 C         2.642763        -0.218447         0.911019
 C         3.371116        -0.895580        -0.279336
 C         2.213737        -0.375941        -1.195421
 O         1.969551        -1.181729        -2.309065
 C         2.495420         1.150086        -1.285235
 C         2.151274         1.167750         0.198026
 O         2.053819         2.281953         0.997250
 H        -0.554604        -0.432887         1.294226
 H        -0.583204        -0.596716        -0.474865
 H        -0.037596        -1.876022         0.621861
 H         2.701050        -0.264411         2.007960
 H         4.414190        -0.653416        -0.614366
 H         3.115101        -1.988042        -0.218816
 H         1.422214        -0.743595        -2.978698
 H         3.607832         1.453886        -1.412257
 H         1.877802         1.734322        -2.045695
 H         3.021231         2.481370         1.059677
