19
Iteration:  2761charge 0 multiplicity 1
 C         0.010111        -0.632424         0.643022
 C         1.418818        -0.324583         0.243002
 C         2.748210        -0.069059         0.820513
 C         3.520249        -0.823096        -0.242767
 C         2.252336        -0.485452        -1.153339
 O         2.138743        -1.172067        -2.366514
 C         2.246535         1.031027        -1.428734
 C         2.084694         1.201738         0.115312
 O         1.766122         2.227755         0.889914
 H        -0.458863        -1.612894         0.445721
 H         0.027894        -0.581332         1.772792
 H        -0.644981         0.164279         0.193522
 H         3.068046         0.319546         1.806147
 H         4.548901        -0.483048        -0.556531
 H         3.464525        -1.914388        -0.023727
 H         2.548901        -2.056660        -2.458293
 H         3.282754         1.311907        -1.833141
 H         1.493868         1.477996        -2.120771
 H         2.473461         2.279832         1.542038
