19
Iteration:  4965charge 0 multiplicity 1
 C        -0.053288        -0.483874         0.387608
 C         1.361798        -0.117310         0.116233
 C         2.710141        -0.110328         0.923318
 C         3.436545        -0.920079        -0.079335
 C         2.352493        -0.580187        -1.077272
 O         1.928161        -1.301281        -2.237508
 C         2.623211         0.940788        -1.268527
 C         2.171722         1.088810         0.151484
 O         1.898877         2.354247         0.745110
 H        -0.809364         0.144018        -0.150511
 H        -0.572677        -1.421442         0.122976
 H        -0.249580        -0.473181         1.547253
 H         2.874401        -0.164318         1.979900
 H         4.438324        -0.833995        -0.396777
 H         3.396342        -1.953140         0.263475
 H         1.358098        -0.753439        -2.795985
 H         3.592378         1.370894        -1.489838
 H         1.803307         1.176945        -1.965282
 H         1.375658         2.813281         0.038469
