19
Iteration:  2850charge 0 multiplicity 1
 C         0.217398        -0.832016         0.509768
 C         1.529608        -0.237627         0.166497
 C         2.836621         0.004858         0.857262
 C         3.549952        -1.002606        -0.205127
 C         2.361709        -0.550495        -1.165124
 O         1.701827        -0.987696        -2.239854
 C         2.578645         1.134934        -1.356674
 C         2.073867         1.156677         0.096468
 O         1.569128         2.234129         0.896964
 H         0.203311        -1.462953         1.405128
 H        -0.466080         0.015287         0.559332
 H        -0.024678        -1.562863        -0.306890
 H         3.088084        -0.025051         1.906272
 H         4.588521        -0.657519        -0.418327
 H         3.222391        -1.944504         0.208539
 H         1.563889        -1.953075        -2.334062
 H         3.573118         1.540410        -1.704882
 H         1.909314         1.509005        -2.147389
 H         1.879526         3.092985         0.597008
