19
Iteration:  2208charge 0 multiplicity 1
 C         0.135494        -0.772243         0.599317
 C         1.388524        -0.153511         0.110707
 C         2.805973        -0.062395         0.886124
 C         3.386952        -0.947574        -0.184553
 C         2.335120        -0.412489        -1.192769
 O         2.084678        -1.352493        -2.228595
 C         2.434600         1.152634        -1.366022
 C         2.177356         1.212610         0.119489
 O         1.610076         2.268036         0.779766
 H         0.126133        -0.573207         1.762947
 H        -0.877087        -0.444868         0.273303
 H         0.288188        -1.836436         0.364521
 H         2.981840         0.055976         1.961154
 H         4.466607        -0.788739        -0.455269
 H         3.240590        -1.997978         0.076423
 H         1.307864        -0.980360        -2.622933
 H         3.318834         1.588239        -1.922961
 H         1.459045         1.694952        -1.716166
 H         2.263034         2.995607         0.900437
