19
Iteration:  2782charge 0 multiplicity 1
 C        -0.019972        -0.657085         0.587494
 C         1.349206        -0.206426         0.149243
 C         2.822770        -0.077208         0.783637
 C         3.526398        -0.805648        -0.242360
 C         2.394971        -0.468961        -1.201304
 O         2.107179        -1.222334        -2.323974
 C         2.263529         1.048093        -1.314957
 C         2.046966         1.122189         0.201372
 O         1.796743         2.255659         0.903605
 H         0.054811        -1.723864         0.601701
 H        -0.272219        -0.319761         1.606031
 H        -0.682875        -0.477922        -0.242485
 H         2.911180        -0.078223         1.882577
 H         4.441885        -0.352239        -0.653389
 H         3.373298        -1.872423        -0.135724
 H         1.798330        -2.153090        -2.072304
 H         2.919436         1.735999        -1.874301
 H         1.288019         1.344840        -1.725240
 H         2.761291         2.480012         0.892065
