19
Iteration:  4233charge 0 multiplicity 1
 C         0.026316        -0.578367         0.344856
 C         1.386797        -0.031648         0.066600
 C         2.659706        -0.085048         0.865793
 C         3.358675        -1.102304        -0.085789
 C         2.359208        -0.561342        -1.121678
 O         1.728136        -1.233022        -2.250586
 C         2.734034         1.055003        -1.284834
 C         2.197994         1.178425         0.175155
 O         1.862096         2.266922         0.894335
 H        -0.786765         0.133530         0.383469
 H        -0.052220        -1.148998        -0.538478
 H         0.015323        -1.211318         1.173729
 H         2.500532        -0.140552         1.907340
 H         4.455941        -1.025921        -0.323754
 H         3.034787        -2.063362         0.187721
 H         1.986375        -0.942092        -3.128485
 H         3.769834         1.313951        -1.201624
 H         2.109312         1.624069        -1.909028
 H         2.501444         2.990983         0.746301
