19
Iteration:  1781charge 0 multiplicity 1
 C         0.067224        -0.825277         0.617896
 C         1.406676        -0.192627         0.190166
 C         2.793733        -0.143874         0.885568
 C         3.499049        -0.787543        -0.243721
 C         2.273276        -0.401251        -1.117054
 O         1.986055        -1.321901        -2.155816
 C         2.532087         1.090329        -1.365580
 C         2.053526         1.157225         0.105787
 O         1.655668         2.343495         0.666394
 H        -0.256989        -0.498363         1.671557
 H        -0.682400        -0.432295        -0.062872
 H         0.151497        -1.859906         0.736950
 H         3.080479         0.105668         1.885296
 H         4.548457        -0.521960        -0.543191
 H         3.377166        -1.832975        -0.157745
 H         1.869930        -0.922310        -3.069707
 H         3.590945         1.285956        -1.503196
 H         1.800331         1.485160        -2.074932
 H         2.395573         2.651383         1.182862
