19
Iteration:   396
 C        -0.195658        -0.258617         0.183437
 C         1.384921        -0.233193         0.015774
 C         2.612535        -0.108185         0.948702
 C         3.431120        -1.004633        -0.004257
 C         2.438102        -0.559820        -1.084870
 O         2.080088        -1.328370        -2.193945
 C         2.736529         0.970231        -1.227098
 C         2.096585         1.049679         0.144022
 O         1.797775         2.287229         0.830001
 H        -0.368187         0.517825         0.936845
 H        -0.634490         0.092277        -0.669875
 H        -0.596064        -1.263258         0.521809
 H         2.410877        -0.085213         2.025271
 H         4.512148        -0.695605        -0.100738
 H         3.344991        -2.034516         0.276440
 H         2.182174        -0.846505        -3.073424
 H         3.768096         1.234742        -1.404449
 H         2.112867         1.489009        -2.030238
 H         0.841287         2.542156         0.751695
