19
Iteration:  1014
 C        -0.032092        -0.325006         0.280202
 C         1.495382        -0.241900         0.164086
 C         2.703507        -0.176466         1.026559
 C         3.479299        -1.023916        -0.123727
 C         2.413185        -0.542235        -1.109009
 O         2.033300        -1.239956        -2.359802
 C         2.538797         1.094236        -1.217054
 C         2.127806         1.082078         0.246867
 O         1.634920         2.273148         0.750091
 H        -0.278376         0.346277         1.076423
 H        -0.449433         0.153797        -0.616060
 H        -0.486394        -1.355657         0.373700
 H         2.681160        -0.187855         2.140543
 H         4.513356        -1.053275        -0.522009
 H         3.086905        -2.031598         0.169604
 H         2.014304        -2.164385        -2.137127
 H         3.384286         1.666674        -1.504790
 H         1.599146         1.244277        -1.756985
 H         2.194113         3.017762         0.429134
