19
Iteration:   824
 C        -0.047098        -0.407278         0.311171
 C         1.338273        -0.116341        -0.019047
 C         2.598438        -0.036729         0.781548
 C         3.411878        -1.025169        -0.196373
 C         2.363122        -0.489561        -1.104936
 O         2.153090        -1.338636        -2.157400
 C         2.624348         1.036019        -1.300820
 C         2.067580         1.143916         0.131794
 O         1.860912         2.269121         0.996960
 H        -0.591171         0.165106         1.113426
 H        -0.648580        -0.147909        -0.552970
 H        -0.299243        -1.527022         0.458981
 H         2.598556         0.050813         1.886438
 H         4.528871        -0.920821        -0.485322
 H         3.217175        -2.009833         0.158382
 H         1.976603        -2.258592        -1.817703
 H         3.595604         1.409943        -1.588791
 H         1.845337         1.265461        -2.008882
 H         0.948280         2.402333         1.276718
