19
Iteration:  4929
 C        -0.027980        -0.567807         0.423092
 C         1.316478        -0.070120         0.101102
 C         2.674497        -0.095510         0.880820
 C         3.321100        -0.990609        -0.115508
 C         2.301382        -0.507506        -1.132079
 O         2.053038        -1.373594        -2.178114
 C         2.618076         0.983789        -1.282289
 C         2.150278         1.154702         0.149436
 O         1.916396         2.363430         0.774022
 H        -0.650344         0.280798         0.299082
 H        -0.157096        -1.483053        -0.112287
 H        -0.002865        -0.698363         1.459123
 H         2.846934        -0.066658         2.007632
 H         4.363724        -0.928481        -0.438485
 H         2.913552        -2.033737         0.201035
 H         1.254666        -1.086979        -2.646966
 H         3.579172         1.390333        -1.498116
 H         1.881780         1.421839        -2.052594
 H         1.881645         3.050104         0.069911
