19
Iteration:  3119
 C         0.109497        -0.628867         0.631580
 C         1.421887        -0.223457         0.185680
 C         2.814809        -0.116532         0.829771
 C         3.558491        -0.823758        -0.321088
 C         2.260909        -0.423387        -1.223070
 O         1.923497        -1.157320        -2.400018
 C         2.358338         1.038566        -1.333586
 C         2.056658         1.127939         0.201576
 O         1.719941         2.162873         0.964212
 H        -0.588115        -0.110202        -0.059407
 H         0.078789        -1.742943         0.467917
 H        -0.127005        -0.574798         1.690468
 H         3.124814        -0.010608         1.867225
 H         4.603153        -0.524378        -0.784305
 H         3.720943        -1.911102        -0.284801
 H         2.672381        -1.786839        -2.526918
 H         3.172694         1.683451        -1.756926
 H         1.343433         1.481159        -1.747002
 H         2.382679         2.573473         1.565509
