19
Iteration:  2938charge 0 multiplicity 1
 C         0.011196        -0.588726         0.691223
 C         1.359725        -0.173023         0.089580
 C         2.719934        -0.003595         0.761909
 C         3.550161        -0.820639        -0.337905
 C         2.289776        -0.501277        -1.179213
 O         2.141963        -1.192727        -2.407061
 C         2.187697         1.080272        -1.323716
 C         2.099309         1.100536         0.130228
 O         1.823523         2.127401         0.989654
 H        -0.095469        -0.162076         1.683279
 H        -0.769199        -0.361274         0.005017
 H        -0.071488        -1.655018         0.993757
 H         2.916707         0.032298         1.793256
 H         4.615468        -0.251685        -0.432258
 H         3.958458        -1.892430        -0.133517
 H         2.245586        -2.099618        -2.087654
 H         3.045798         1.492317        -1.865652
 H         1.222796         1.171766        -1.799204
 H         2.526178         2.223478         1.636131
