19
Iteration:  4405charge 0 multiplicity 1
 C        -0.103620        -0.449964         0.408470
 C         1.363711        -0.188864         0.048406
 C         2.670170        -0.135496         0.944073
 C         3.452965        -1.000741        -0.146225
 C         2.347706        -0.495981        -1.141430
 O         1.963753        -1.321596        -2.264574
 C         2.686925         0.954466        -1.285396
 C         2.134440         1.147682         0.106434
 O         1.885586         2.366161         0.888130
 H        -0.360819        -1.494828         0.179483
 H        -0.141731        -0.321939         1.518551
 H        -0.800935         0.333566         0.044536
 H         2.712724        -0.053904         2.003986
 H         4.471494        -0.785962        -0.452131
 H         3.262734        -2.022775         0.094964
 H         0.981441        -1.365877        -2.227199
 H         3.704015         1.165359        -1.495487
 H         1.970957         1.390971        -1.965966
 H         1.652683         3.036125         0.224070
