19
Iteration:  1235
 C        -0.066999        -0.387713         0.411605
 C         1.388356        -0.281025         0.105498
 C         2.655207        -0.175110         0.955916
 C         3.469105        -0.931468        -0.142703
 C         2.357736        -0.483217        -1.073294
 O         2.134849        -1.311221        -2.219848
 C         2.490058         1.029791        -1.295277
 C         2.206774         1.082057         0.190237
 O         1.785444         2.318853         0.673579
 H        -0.289755         0.131903         1.346392
 H        -0.557883         0.198406        -0.454786
 H        -0.482630        -1.451686         0.443555
 H         2.693430        -0.477325         2.006397
 H         4.423062        -0.471191        -0.502291
 H         3.501262        -2.070977         0.018014
 H         1.483788        -0.773500        -2.648663
 H         3.233716         1.441881        -2.004458
 H         1.467431         1.363686        -1.780557
 H         1.474210         2.311117         1.603375
