19
Iteration:  4079charge 0 multiplicity 1
 C        -0.065943        -0.585752         0.415361
 C         1.427582        -0.071827         0.173352
 C         2.690326        -0.257033         0.927030
 C         3.373688        -1.102508        -0.193191
 C         2.352983        -0.471495        -1.181816
 O         1.890975        -1.106146        -2.244840
 C         2.687583         1.012534        -1.269615
 C         2.179523         1.155606         0.160422
 O         1.822747         2.244734         0.831142
 H        -0.298759        -1.222308        -0.498264
 H        -0.370402        -1.059652         1.393699
 H        -0.792847         0.256224         0.311528
 H         2.815952        -0.210266         2.074735
 H         4.508937        -0.797701        -0.465268
 H         3.172057        -2.194405         0.023659
 H         1.267836        -0.551668        -2.766590
 H         3.718847         1.416398        -1.539629
 H         1.969621         1.614305        -1.895127
 H         2.500515         2.943553         0.719029
