19
Iteration:  4843charge 0 multiplicity 1
 C        -0.027170        -0.415443         0.407412
 C         1.412402        -0.153864         0.162387
 C         2.753005        -0.155641         0.997323
 C         3.390009        -1.057407        -0.152175
 C         2.318653        -0.515643        -1.111220
 O         2.004067        -1.358765        -2.243092
 C         2.586191         0.923457        -1.334342
 C         2.122739         1.152218         0.201668
 O         1.893063         2.464041         0.740821
 H        -0.694203        -0.238255        -0.498254
 H        -0.159946        -1.550019         0.471945
 H        -0.620797         0.052879         1.265000
 H         2.834699        -0.132757         2.101300
 H         4.380862        -0.979447        -0.496628
 H         3.161233        -2.147495         0.043391
 H         1.665234        -0.712868        -2.906206
 H         3.428695         1.442356        -1.566110
 H         1.742557         1.220326        -2.015590
 H         0.913535         2.598940         0.702457
