19
Iteration:   970
 C        -0.117169        -0.440677         0.382450
 C         1.309084        -0.194620         0.098381
 C         2.605837        -0.017927         0.940519
 C         3.453354        -0.937790        -0.105058
 C         2.331256        -0.513652        -1.153049
 O         2.136548        -1.239409        -2.320687
 C         2.566552         0.989406        -1.317869
 C         2.127540         1.076528         0.138203
 O         1.815309         2.224899         0.857507
 H        -0.522707         0.261449         1.119158
 H        -0.674577        -0.131034        -0.535712
 H        -0.481574        -1.497777         0.642832
 H         2.627782         0.006323         2.039235
 H         4.417224        -0.453693        -0.360665
 H         3.472489        -2.024317         0.107339
 H         2.197796        -2.169715        -2.095134
 H         3.602512         1.194136        -1.542175
 H         1.823080         1.522259        -1.933100
 H         2.650199         2.559752         1.273027
