19
Iteration:  4311
 C        -0.134193        -0.482042         0.439703
 C         1.306321        -0.157035         0.126383
 C         2.604025        -0.223525         0.841474
 C         3.405758        -0.975471        -0.112732
 C         2.309540        -0.487476        -1.107986
 O         2.009544        -1.271980        -2.238140
 C         2.568694         0.973118        -1.281190
 C         2.126632         1.161648         0.163561
 O         2.064644         2.357095         0.764681
 H        -0.194940        -0.631706         1.514775
 H        -0.743805         0.291488         0.048143
 H        -0.478797        -1.308705        -0.100434
 H         2.702934        -0.208288         2.016876
 H         4.395368        -0.580474        -0.420494
 H         3.316318        -2.062303         0.027108
 H         2.341389        -0.962492        -3.083607
 H         3.580148         1.355612        -1.765084
 H         1.787452         1.413138        -1.965099
 H         1.532942         2.191594         1.585314
