19
Iteration:  4257
 C        -0.072585        -0.655842         0.310833
 C         1.375096        -0.122124         0.070056
 C         2.675966        -0.127365         0.909452
 C         3.313455        -1.053327        -0.097009
 C         2.328440        -0.420801        -1.063882
 O         1.815476        -1.221152        -2.169788
 C         2.728961         1.003908        -1.379010
 C         2.237714         1.165362         0.115175
 O         1.888567         2.384864         0.872110
 H        -0.732797         0.010229         0.865388
 H        -0.432848        -0.984626        -0.654134
 H         0.136198        -1.559736         0.874713
 H         2.627630        -0.103952         2.066885
 H         4.320133        -1.012788        -0.508113
 H         2.886758        -2.079351        -0.061901
 H         2.084909        -0.950359        -3.058684
 H         3.721610         1.160952        -1.446607
 H         2.013655         1.563888        -2.010165
 H         2.719585         2.437257         1.425982
