19
Iteration:  2072charge 0 multiplicity 1
 C         0.105232        -0.589161         0.618321
 C         1.481363        -0.244681         0.188330
 C         2.733396        -0.022909         0.825673
 C         3.596448        -0.761545        -0.261340
 C         2.382969        -0.493789        -1.169263
 O         1.969086        -1.361583        -2.265700
 C         2.456998         1.019608        -1.378058
 C         2.052590         1.201956         0.052308
 O         1.603438         2.189632         0.888932
 H        -0.321069         0.291081         1.054610
 H        -0.459777        -0.792887        -0.349864
 H        -0.061661        -1.581134         1.176401
 H         2.753141        -0.004173         1.956834
 H         4.602904        -0.329782        -0.342929
 H         3.732961        -1.811069         0.085968
 H         1.027346        -1.065524        -2.534820
 H         3.435538         1.439788        -1.675981
 H         1.761711         1.318469        -2.169006
 H         2.316606         2.535656         1.424147
