19
Iteration:  2428
 C         0.067176        -0.828857         0.462147
 C         1.453030        -0.272396         0.094363
 C         2.672404         0.014654         0.881634
 C         3.552049        -0.802148        -0.134407
 C         2.418354        -0.475675        -1.190747
 O         1.891205        -1.321859        -2.191201
 C         2.547675         1.039044        -1.346694
 C         2.112453         1.194139         0.118481
 O         1.727449         2.388553         0.752700
 H        -0.031586        -1.022560         1.581237
 H        -0.658552        -0.085411         0.136494
 H        -0.386296        -1.747089         0.124343
 H         2.685983        -0.102973         1.925009
 H         4.488713        -0.282951        -0.242226
 H         3.506834        -1.874653         0.152773
 H         0.943865        -1.395236        -2.022369
 H         3.355945         1.650284        -1.710206
 H         1.717406         1.436082        -2.002374
 H         2.264591         2.505237         1.557688
