19
Iteration:   837charge 0 multiplicity 1
 C        -0.126874        -0.511263         0.267955
 C         1.335627        -0.167048         0.010598
 C         2.661312        -0.091312         0.912432
 C         3.358139        -0.977258        -0.139075
 C         2.349265        -0.510261        -1.164241
 O         2.099868        -1.381306        -2.259363
 C         2.665449         1.054431        -1.299611
 C         2.138889         1.205682         0.161148
 O         1.846045         2.364547         1.015169
 H        -0.253744         0.006193         1.266631
 H        -0.817293        -0.258952        -0.474911
 H        -0.158251        -1.631587         0.541423
 H         2.763488        -0.063481         2.009518
 H         4.410158        -0.724900        -0.450248
 H         3.285491        -2.052186        -0.013020
 H         1.909456        -2.206884        -1.820654
 H         3.674777         1.424654        -1.522666
 H         2.029131         1.536377        -2.006666
 H         1.107970         2.776913         0.502139
