19
Iteration:  3076
 C         0.053261        -0.834979         0.646369
 C         1.337538        -0.211661         0.221294
 C         2.689774        -0.134612         0.787363
 C         3.484055        -0.748081        -0.363793
 C         2.325530        -0.405728        -1.260009
 O         2.104721        -1.239680        -2.390586
 C         2.258626         1.197505        -1.260237
 C         2.047584         1.103043         0.200681
 O         1.937112         2.306764         0.903509
 H        -0.790800        -0.102186         0.610994
 H        -0.133122        -1.652242        -0.137403
 H        -0.064074        -1.314082         1.657858
 H         2.768795        -0.134899         1.869479
 H         4.409483        -0.378221        -0.639519
 H         3.807605        -1.753763        -0.180052
 H         1.581399        -1.962793        -2.026897
 H         3.207899         1.626162        -1.717192
 H         1.257483         1.412524        -1.821526
 H         2.593638         2.181435         1.620290
