19
Iteration:   352
 C        -0.139513        -0.276151         0.372862
 C         1.298064        -0.141721        -0.076165
 C         2.501999        -0.105935         0.910528
 C         3.196965        -1.077354        -0.022177
 C         2.306863        -0.508625        -1.133084
 O         2.479576        -1.450280        -2.280666
 C         2.705991         0.999022        -1.289814
 C         2.150291         1.167016         0.156727
 O         1.832586         2.306452         0.940627
 H        -0.137848         0.556855         1.118680
 H        -0.816837        -0.041724        -0.363183
 H        -0.398585        -1.326033         0.795664
 H         2.400570        -0.150589         1.996119
 H         4.289592        -1.093536        -0.312935
 H         2.790280        -2.064574         0.139883
 H         1.687831        -1.279095        -2.920575
 H         3.635873         1.423187        -1.606450
 H         2.054860         1.455216        -2.082007
 H         0.935304         2.708575         0.765892
