19
Iteration:    24charge 0 multiplicity 1
 C        -0.252223        -0.493920         0.074617
 C         1.240573        -0.031148        -0.051313
 C         2.462700        -0.178705         0.893225
 C         3.411801        -0.978987         0.011085
 C         2.389801        -0.446338        -1.135441
 O         2.136614        -1.496726        -2.096673
 C         2.801017         1.125498        -1.217690
 C         2.159699         1.150315         0.171007
 O         1.901452         2.333280         0.817865
 H        -0.678468         0.134068         0.958317
 H        -0.873215        -0.306524        -0.824898
 H        -0.355381        -1.523553         0.340055
 H         2.414042        -0.148379         1.990440
 H         4.470229        -0.558597        -0.065626
 H         3.455161        -2.022131         0.165944
 H         1.264586        -1.869957        -1.717357
 H         3.848141         1.426617        -1.340642
 H         2.170859         1.609964        -2.009293
 H         2.779598         2.680183         1.128310
