19
Iteration:   905charge 0 multiplicity 1
 C         0.015548        -0.724701         0.419359
 C         1.321518        -0.120328         0.172119
 C         2.656378        -0.066832         1.030035
 C         3.277753        -1.099227        -0.036117
 C         2.384871        -0.504555        -1.148519
 O         2.022180        -1.113925        -2.428723
 C         2.720013         1.016597        -1.219544
 C         2.118205         1.151047         0.173314
 O         1.770546         2.416983         0.628912
 H        -0.432471        -0.439668         1.382460
 H        -0.719369        -0.501187        -0.383328
 H         0.128223        -1.842762         0.509709
 H         2.658339         0.115074         2.100203
 H         4.305460        -0.882810        -0.265766
 H         3.043700        -2.179205         0.230513
 H         1.714881        -2.017470        -2.294582
 H         3.774916         1.298588        -1.361260
 H         2.162867         1.611219        -1.968084
 H         2.405912         2.749977         1.257696
