19
Iteration:  3114charge 0 multiplicity 1
 C         0.088812        -0.646901         0.644139
 C         1.437085        -0.261900         0.206313
 C         2.768081        -0.093923         0.820898
 C         3.558274        -0.811816        -0.338586
 C         2.277437        -0.438096        -1.198156
 O         1.950735        -1.145764        -2.405083
 C         2.314290         1.063398        -1.343904
 C         2.052128         1.120939         0.168021
 O         1.770968         2.178668         0.974462
 H        -0.601218        -0.104430         0.003364
 H        -0.036649        -1.673447         0.309396
 H        -0.113546        -0.640713         1.728498
 H         3.054960        -0.050309         1.877214
 H         4.473130        -0.267564        -0.765443
 H         3.649295        -1.893253        -0.045442
 H         2.626551        -1.812311        -2.518298
 H         3.143692         1.581227        -1.815231
 H         1.461477         1.361995        -1.870899
 H         2.490445         2.365908         1.590953
