19
Iteration:  1302charge 0 multiplicity 1
 C         0.065319        -0.690751         0.506217
 C         1.385092        -0.076353         0.021747
 C         2.639790        -0.015776         0.903209
 C         3.366710        -0.963165        -0.014070
 C         2.329337        -0.521480        -1.130538
 O         1.919209        -1.245570        -2.257734
 C         2.707164         1.062504        -1.381588
 C         2.076961         1.158166         0.102654
 O         1.826244         2.256804         0.848270
 H        -0.220444        -0.138508         1.414913
 H        -0.781128        -0.431349        -0.194522
 H         0.200131        -1.725967         0.724088
 H         2.601430        -0.051621         2.011682
 H         4.425071        -0.792064        -0.178084
 H         3.076565        -2.079197         0.148948
 H         2.629910        -1.666956        -2.823565
 H         3.678275         1.482247        -1.778597
 H         1.824377         1.444316        -1.998094
 H         1.452002         2.914654         0.248735
