19
Iteration:  1140charge 0 multiplicity 1
 C        -0.083546        -0.715881         0.351003
 C         1.276850        -0.195814         0.040166
 C         2.610691        -0.030751         0.927750
 C         3.357617        -0.983957        -0.046525
 C         2.293071        -0.491602        -1.135013
 O         2.040755        -1.183595        -2.352730
 C         2.651542         1.019183        -1.197135
 C         2.122915         1.177799         0.213412
 O         2.018704         2.366942         0.775755
 H        -0.566465        -0.068082         1.155371
 H        -0.744887        -0.394428        -0.517964
 H        -0.242822        -1.704293         0.698902
 H         2.819929         0.023396         2.005112
 H         4.410091        -0.791644        -0.132151
 H         3.060478        -2.000348         0.395090
 H         2.372418        -2.117189        -2.170006
 H         3.656345         1.170860        -1.601829
 H         2.089865         1.400869        -2.014485
 H         1.113057         2.779794         0.676349
