19
Iteration:  3209
 C         0.108271        -0.801204         0.495869
 C         1.435515        -0.251968         0.151434
 C         2.830315        -0.151485         0.829866
 C         3.519208        -0.853507        -0.288415
 C         2.278124        -0.408377        -1.217512
 O         1.889266        -1.120216        -2.256617
 C         2.355432         1.140818        -1.280404
 C         2.083367         1.062249         0.150998
 O         1.796932         2.219655         1.005365
 H        -0.100882        -1.644329        -0.174418
 H         0.129567        -1.112988         1.597765
 H        -0.740867        -0.083352         0.547429
 H         3.176428        -0.303108         1.851562
 H         4.517520        -0.389828        -0.739681
 H         3.408095        -1.961709        -0.114471
 H         1.937050        -0.684082        -3.100500
 H         3.253858         1.787592        -1.571777
 H         1.493630         1.543179        -1.909285
 H         2.277404         2.985281         0.653158
