19
Iteration:  2664charge 0 multiplicity 1
 C         0.094025        -0.794678         0.417729
 C         1.512705        -0.257694         0.176617
 C         2.823028        -0.002451         0.890079
 C         3.561158        -0.840821        -0.173241
 C         2.366761        -0.519952        -1.076190
 O         1.840761        -1.260293        -2.177696
 C         2.421717         1.050637        -1.449452
 C         2.060618         1.212722         0.109722
 O         1.678706         2.285624         0.897129
 H        -0.775978        -0.341314        -0.140849
 H         0.014808        -1.879668         0.210264
 H        -0.342607        -0.446032         1.390141
 H         2.948305         0.102858         1.952735
 H         4.585689        -0.579469        -0.505692
 H         3.457327        -1.900739         0.085906
 H         1.956035        -0.785565        -3.036650
 H         3.415421         1.519725        -1.680413
 H         1.612292         1.390105        -2.120742
 H         2.388999         2.907603         0.713764
