19
Iteration:  3055charge 0 multiplicity 1
 C         0.127239        -0.903907         0.554547
 C         1.420814        -0.211565         0.132449
 C         2.772812        -0.173093         0.870555
 C         3.467681        -0.850813        -0.326698
 C         2.202909        -0.343335        -1.169643
 O         2.021247        -1.187064        -2.349620
 C         2.377111         1.154785        -1.349776
 C         2.105252         1.150633         0.242351
 O         1.786697         2.386243         0.891574
 H        -0.768478        -0.290718         0.796976
 H        -0.109950        -1.689002        -0.253786
 H         0.283988        -1.364840         1.572232
 H         3.148896        -0.169438         1.892525
 H         4.453061        -0.570626        -0.630899
 H         3.434710        -1.968765        -0.205085
 H         1.297686        -1.856023        -2.156147
 H         3.395840         1.418330        -1.768353
 H         1.427979         1.584222        -1.836566
 H         2.481083         2.433419         1.577416
