19
Iteration:  2262charge 0 multiplicity 1
 C         0.017194        -0.612227         0.582852
 C         1.418521        -0.197033         0.116725
 C         2.879046        -0.093567         0.860942
 C         3.639333        -0.755928        -0.261315
 C         2.345463        -0.446869        -1.172503
 O         1.937942        -1.382672        -2.268690
 C         2.501689         1.056813        -1.278739
 C         2.088551         1.114863         0.162829
 O         1.578958         2.231191         0.788653
 H        -0.488795         0.287608         1.138461
 H        -0.501836        -0.877217        -0.359928
 H        -0.020585        -1.598227         1.053766
 H         2.936421        -0.082407         1.968598
 H         4.612329        -0.253934        -0.520678
 H         3.762578        -1.835910        -0.218448
 H         1.025948        -1.185438        -2.264694
 H         3.405981         1.556107        -1.596034
 H         1.784713         1.529535        -1.982286
 H         2.191065         2.652838         1.439314
