19
Iteration:  2727
 C         0.078293        -0.585500         0.756529
 C         1.381469        -0.156858         0.082805
 C         2.779234        -0.148373         0.806832
 C         3.572175        -0.893361        -0.318433
 C         2.408602        -0.471751        -1.213286
 O         1.954179        -1.291219        -2.306387
 C         2.467361         1.152536        -1.253062
 C         2.114868         1.087386         0.167836
 O         1.539156         2.271296         0.757632
 H        -0.493888        -1.291276         0.193976
 H         0.448925        -0.938310         1.770378
 H        -0.490632         0.323254         1.086283
 H         2.899287        -0.256886         1.864240
 H         4.567687        -0.560176        -0.695948
 H         3.427767        -1.994287        -0.292564
 H         2.773056        -1.801018        -2.641053
 H         3.516379         1.564728        -1.527860
 H         1.737702         1.655875        -1.913287
 H         1.741736         2.379607         1.685093
