19
Iteration:  1163
 C         0.031282        -0.565281         0.377757
 C         1.339370        -0.021697         0.005214
 C         2.508611        -0.176434         0.920206
 C         3.368569        -1.023032        -0.071844
 C         2.424611        -0.510675        -1.206125
 O         1.987932        -1.263289        -2.206180
 C         2.722681         1.081556        -1.372455
 C         2.160489         1.157042         0.126375
 O         1.812648         2.296101         0.935968
 H        -0.471644        -0.090211         1.284214
 H        -0.655101        -0.371116        -0.424594
 H         0.170088        -1.626150         0.595137
 H         2.305578        -0.271728         2.009575
 H         4.345231        -0.596389        -0.261031
 H         3.358525        -2.117885         0.172996
 H         1.791907        -2.103657        -1.852418
 H         3.698805         1.498462        -1.670563
 H         2.088711         1.394882        -2.140041
 H         1.554901         3.035818         0.374710
