19
Iteration:  3858
 C         0.019598        -0.720679         0.397626
 C         1.330074        -0.146073         0.133779
 C         2.665666        -0.148432         0.797513
 C         3.366798        -1.013429        -0.245238
 C         2.310608        -0.450464        -1.172641
 O         1.951143        -1.140568        -2.380019
 C         2.524506         1.127584        -1.212275
 C         2.092633         1.095469         0.236990
 O         2.000835         2.293558         0.984429
 H        -0.296601        -0.444170         1.427210
 H        -0.839996        -0.374242        -0.233469
 H         0.267408        -1.796175         0.154613
 H         2.861777        -0.194021         1.864977
 H         4.335291        -0.585684        -0.384224
 H         3.395073        -2.065924        -0.019652
 H         0.996007        -1.047457        -2.514183
 H         3.456073         1.484070        -1.646175
 H         1.658055         1.559393        -1.667620
 H         2.878866         2.662089         1.230292
