19
Iteration:  3845
 C         0.003060        -0.800590         0.423575
 C         1.332238        -0.174250         0.137266
 C         2.645350        -0.221239         0.905924
 C         3.372564        -0.904977        -0.259792
 C         2.207039        -0.386104        -1.214346
 O         1.978086        -1.180864        -2.322006
 C         2.503591         1.137470        -1.282759
 C         2.143126         1.164871         0.189681
 O         2.051224         2.283198         0.997051
 H        -0.540403        -0.534653         1.321289
 H        -0.543638        -0.533173        -0.509248
 H        -0.074372        -1.920550         0.567585
 H         2.670045        -0.244892         2.041939
 H         4.284564        -0.737386        -0.671241
 H         3.259694        -1.957702        -0.149372
 H         1.273050        -0.713299        -2.846595
 H         3.531439         1.580777        -1.330040
 H         1.860349         1.713539        -1.962165
 H         2.990049         2.500806         1.059832
