19
Iteration:  2915charge 0 multiplicity 1
 C         0.020006        -0.655436         0.754748
 C         1.401347        -0.286105         0.113216
 C         2.700973        -0.073599         0.831942
 C         3.477970        -0.718579        -0.320426
 C         2.310183        -0.447068        -1.262935
 O         2.122238        -1.231365        -2.400094
 C         2.322872         1.076912        -1.474988
 C         1.995399         1.064884         0.114701
 O         1.833978         2.278048         1.024682
 H         0.120472        -0.661131         1.816231
 H        -0.717992         0.031691         0.367817
 H        -0.372694        -1.673879         0.643593
 H         2.980091        -0.201786         1.843565
 H         4.563351        -0.202410        -0.427170
 H         3.682594        -1.877868        -0.202986
 H         2.164746        -2.173892        -2.047114
 H         3.281329         1.483115        -1.765341
 H         1.453008         1.528697        -1.946631
 H         2.456563         2.046585         1.748386
