19
Iteration:  3810
 C         0.015781        -0.749078         0.469927
 C         1.360068        -0.098958         0.063116
 C         2.688045        -0.159760         0.851081
 C         3.433822        -0.968662        -0.295246
 C         2.285874        -0.476184        -1.150750
 O         1.806700        -1.132189        -2.353668
 C         2.482405         1.183707        -1.221170
 C         2.186718         1.133413         0.199282
 O         1.961014         2.256436         1.007150
 H        -0.668351        -0.002213         0.827355
 H        -0.448546        -1.058759        -0.470755
 H         0.205481        -1.666048         1.002722
 H         2.674924        -0.337725         1.930259
 H         4.371640        -0.748446        -0.582830
 H         3.320393        -2.028486        -0.120582
 H         2.522884        -1.340386        -3.015678
 H         3.504685         1.535670        -1.521702
 H         1.716178         1.533601        -1.957044
 H         2.735567         2.331011         1.573637
