19
Iteration:  2342charge 0 multiplicity 1
 C         0.001163        -0.657039         0.700322
 C         1.323238        -0.271441         0.095400
 C         2.730051        -0.021930         0.831658
 C         3.523075        -0.779711        -0.257595
 C         2.260452        -0.513757        -1.153783
 O         2.140343        -1.238302        -2.247606
 C         2.420407         0.993612        -1.392914
 C         2.077278         1.081044         0.174430
 O         1.741748         2.256797         0.782022
 H        -0.498123         0.253543         1.133450
 H        -0.652725        -1.094021        -0.098969
 H         0.226695        -1.313950         1.591028
 H         2.898279        -0.148726         1.864465
 H         4.478160        -0.438701        -0.672182
 H         3.588305        -1.832757         0.134494
 H         2.025329        -0.620433        -2.933608
 H         3.366967         1.413634        -1.643663
 H         1.492879         1.390159        -1.864030
 H         2.588311         2.689662         1.075854
