19
Iteration:  4020
 C         0.001644        -0.689916         0.448993
 C         1.340568        -0.125784        -0.021098
 C         2.592292        -0.226314         0.887634
 C         3.346469        -0.992134        -0.182617
 C         2.287590        -0.387034        -1.187862
 O         1.827724        -1.094288        -2.253066
 C         2.667170         1.037346        -1.330641
 C         2.197895         1.161944         0.148926
 O         1.949813         2.292671         0.939114
 H        -0.103826        -1.736767         0.616552
 H        -0.409442        -0.297015         1.340283
 H        -0.627484        -0.367751        -0.384556
 H         2.710367        -0.055184         1.891243
 H         4.528353        -0.878069        -0.240585
 H         3.256848        -2.124889        -0.078825
 H         2.366213        -1.883667        -2.377266
 H         3.717932         1.308757        -1.621266
 H         1.893178         1.672104        -1.769518
 H         2.674230         2.433100         1.594432
