19
Iteration:   342charge 0 multiplicity 1
 C        -0.147119        -0.321795         0.368304
 C         1.248837        -0.170030        -0.029732
 C         2.457230        -0.162580         0.895410
 C         3.223754        -1.109342        -0.017971
 C         2.399503        -0.583994        -1.145437
 O         2.455027        -1.397660        -2.312538
 C         2.689718         1.098298        -1.252374
 C         2.104638         1.109482         0.155025
 O         1.871877         2.382345         0.881957
 H        -0.179888         0.399080         1.265784
 H        -0.893491         0.041702        -0.270764
 H        -0.417375        -1.278256         0.913194
 H         2.447611        -0.100224         1.983270
 H         4.354205        -1.104363        -0.105225
 H         2.916710        -2.072441         0.271617
 H         1.621704        -1.301031        -2.833308
 H         3.694133         1.423120        -1.278608
 H         1.934444         1.549322        -1.933366
 H         1.254466         2.929524         0.308101
