19
Iteration:  4477
 C        -0.063392        -0.597144         0.319344
 C         1.309168         0.000500         0.108577
 C         2.613375        -0.074195         0.948183
 C         3.389883        -0.990629        -0.099195
 C         2.279024        -0.560083        -1.102040
 O         1.929034        -1.379953        -2.199748
 C         2.626344         0.963491        -1.285401
 C         2.142908         1.185492         0.128740
 O         2.077187         2.353290         0.823792
 H        -0.258060        -1.306825        -0.508547
 H        -0.008129        -1.178637         1.223342
 H        -0.790677         0.166629         0.613583
 H         2.836346         0.260106         1.905533
 H         4.424782        -0.673809        -0.311461
 H         3.329784        -2.170069        -0.151557
 H         1.727890        -0.813398        -2.965010
 H         3.667519         1.350387        -1.569106
 H         1.912547         1.511003        -2.034964
 H         1.158750         2.718123         0.715772
