19
Iteration:  4584charge 0 multiplicity 1
 C        -0.099453        -0.416939         0.499998
 C         1.344553        -0.187805         0.050302
 C         2.612263        -0.102823         0.928914
 C         3.392881        -0.992707        -0.144241
 C         2.289333        -0.539991        -1.180323
 O         2.175105        -1.345373        -2.253624
 C         2.507531         1.013318        -1.350184
 C         2.131316         1.134582         0.110860
 O         1.994454         2.368203         0.843235
 H        -0.694995         0.544540         0.212520
 H        -0.635982        -1.312399         0.040381
 H        -0.123602        -0.299637         1.608979
 H         2.713796         0.091174         2.012555
 H         4.415572        -0.783240        -0.520076
 H         3.321211        -1.987410         0.111973
 H         1.556336        -2.006652        -1.928873
 H         3.519914         1.296400        -1.749868
 H         1.750319         1.358909        -2.029794
 H         1.002119         2.412095         0.932318
