19
Iteration:  3873
 C        -0.026374        -0.691654         0.420448
 C         1.382196        -0.142387         0.040641
 C         2.738482        -0.210920         0.875834
 C         3.453724        -0.998658        -0.216647
 C         2.286127        -0.425629        -1.180700
 O         1.919420        -1.066850        -2.368476
 C         2.509131         1.056434        -1.285857
 C         2.239518         1.162565         0.211507
 O         1.855311         2.281286         0.992997
 H        -0.118363        -0.666058         1.534983
 H        -0.842948        -0.089156         0.024662
 H        -0.275898        -1.711176         0.128868
 H         2.840985        -0.272868         1.947196
 H         4.608110        -1.102386        -0.523347
 H         3.146215        -2.105144        -0.101922
 H         1.018500        -1.438873        -2.184169
 H         3.500811         1.431823        -1.535020
 H         1.732784         1.472748        -1.965413
 H         2.663130         2.634778         1.407111
