19
Iteration:  3753
 C         0.058338        -0.438026         0.566788
 C         1.438973        -0.250910         0.122446
 C         2.850428        -0.278630         0.840126
 C         3.491534        -0.951076        -0.386506
 C         2.300061        -0.452262        -1.227011
 O         1.886477        -1.085286        -2.361910
 C         2.593072         1.127762        -1.244608
 C         2.211638         1.043570         0.216229
 O         1.586687         2.125009         0.998722
 H        -0.402250         0.527308         0.853724
 H        -0.416533        -0.815635        -0.321894
 H        -0.159583        -1.083563         1.379482
 H         3.100289        -0.324025         1.889502
 H         4.409446        -0.715326        -0.671949
 H         3.444481        -2.055044        -0.269871
 H         0.929004        -1.029873        -2.405991
 H         3.665823         1.363649        -1.472000
 H         1.842852         1.700827        -1.835131
 H         2.342085         2.754803         1.127005
