19
Iteration:  3107charge 0 multiplicity 1
 C         0.053742        -0.701019         0.632409
 C         1.439440        -0.294227         0.210506
 C         2.768618        -0.073826         0.791103
 C         3.514654        -0.777116        -0.341231
 C         2.306063        -0.485001        -1.178128
 O         1.981668        -1.125710        -2.388854
 C         2.269867         1.109316        -1.347256
 C         2.078428         1.091917         0.131493
 O         1.810628         2.219961         0.994705
 H        -0.744519        -0.015918         0.243876
 H        -0.215614        -1.680923         0.258344
 H        -0.085227        -0.586307         1.686250
 H         2.948857        -0.107585         1.849817
 H         4.465877        -0.141685        -0.629740
 H         3.665266        -1.789999         0.008244
 H         2.562848        -1.919457        -2.489747
 H         3.212812         1.428958        -1.808903
 H         1.384835         1.308642        -2.029950
 H         2.610526         2.132279         1.539934
