19
Iteration:  3123
 C         0.119671        -0.635752         0.607138
 C         1.430203        -0.182379         0.169639
 C         2.866458        -0.136664         0.823098
 C         3.559028        -0.829385        -0.325607
 C         2.263110        -0.429557        -1.239018
 O         1.901690        -1.167939        -2.385588
 C         2.369804         1.066365        -1.316489
 C         2.096376         1.103370         0.216311
 O         1.655135         2.169598         0.966169
 H        -0.664177        -0.162645        -0.017611
 H         0.101981        -1.787394         0.570914
 H        -0.137638        -0.382310         1.707365
 H         3.160871        -0.024055         1.888547
 H         4.517088        -0.721420        -0.655362
 H         3.673059        -1.939235        -0.430711
 H         2.646318        -1.749291        -2.537577
 H         3.256448         1.664780        -1.724397
 H         1.403802         1.497979        -1.641562
 H         2.322532         2.677118         1.438534
