19
Iteration:  4238charge 0 multiplicity 1
 C         0.026345        -0.629382         0.329240
 C         1.358215        -0.038833         0.062267
 C         2.651810        -0.085424         0.852848
 C         3.347376        -1.098271        -0.100136
 C         2.336492        -0.572927        -1.186534
 O         1.737927        -1.229074        -2.210212
 C         2.767138         1.050342        -1.275904
 C         2.210751         1.212476         0.197616
 O         1.870848         2.290404         0.894569
 H        -0.710463         0.220159         0.453382
 H        -0.315013        -1.215983        -0.638412
 H        -0.082271        -1.375589         1.227384
 H         2.737297        -0.059730         2.034673
 H         4.431701        -1.008191        -0.110832
 H         3.014810        -2.157390         0.295982
 H         2.034610        -0.857852        -3.073290
 H         3.864462         1.328522        -1.541289
 H         2.063433         1.616343        -2.026237
 H         2.494814         3.042362         0.992951
