19
Iteration:  4289charge 0 multiplicity 1
 C        -0.130875        -0.553960         0.352633
 C         1.320214        -0.211630         0.041579
 C         2.642966        -0.147656         0.943822
 C         3.389749        -0.975753        -0.067349
 C         2.295631        -0.584539        -1.162921
 O         1.904314        -1.293843        -2.269457
 C         2.569902         1.045311        -1.273015
 C         2.208926         1.141062         0.223348
 O         2.057788         2.434251         0.779420
 H        -0.381581        -0.279642         1.369220
 H        -0.836713        -0.247580        -0.362118
 H        -0.196734        -1.599335         0.290889
 H         2.726430        -0.037768         2.070331
 H         4.426600        -0.756066        -0.380265
 H         3.214176        -2.032552        -0.029616
 H         2.304742        -0.887722        -3.071321
 H         3.539337         1.514739        -1.511049
 H         1.883863         1.664436        -1.865082
 H         2.030464         2.430184         1.742155
