19
Iteration:  4264charge 0 multiplicity 1
 C        -0.029904        -0.629375         0.326012
 C         1.340609        -0.071004         0.129311
 C         2.659873        -0.109977         0.946653
 C         3.330915        -1.052627        -0.157436
 C         2.313944        -0.498198        -1.133583
 O         1.854712        -1.216487        -2.142075
 C         2.667452         1.014805        -1.354814
 C         2.149789         1.172931         0.156134
 O         1.956686         2.341934         0.812674
 H        -0.742315        -0.050782         0.916121
 H        -0.402852        -0.790623        -0.689517
 H         0.032464        -1.661952         0.698339
 H         2.488126        -0.186744         1.956463
 H         4.428197        -1.020184        -0.417582
 H         2.981967        -2.060115        -0.083799
 H         2.224011        -0.864540        -2.981523
 H         3.815280         1.280256        -1.470215
 H         2.117486         1.588674        -2.074676
 H         2.537848         2.417081         1.587248
