19
Iteration:  1425charge 0 multiplicity 1
 C        -0.123057        -0.403756         0.571522
 C         1.376625        -0.197627         0.170945
 C         2.721271        -0.091007         0.820205
 C         3.490780        -0.798208        -0.284052
 C         2.266818        -0.530190        -1.134585
 O         2.203882        -1.428550        -2.260380
 C         2.567557         1.005257        -1.361451
 C         2.129912         1.121250         0.132113
 O         1.698627         2.267338         0.801123
 H        -0.318522         0.017518         1.554433
 H        -0.679970        -0.030144        -0.314351
 H        -0.456612        -1.397161         0.723407
 H         2.782578        -0.059263         1.907738
 H         4.442131        -0.471611        -0.608606
 H         3.604529        -1.900171         0.049047
 H         1.255328        -1.815203        -2.208428
 H         3.575035         1.422887        -1.545573
 H         1.938461         1.735423        -1.822714
 H         1.924023         2.372490         1.738350
