19
Iteration:  2526charge 0 multiplicity 1
 C         0.021452        -0.588471         0.683934
 C         1.434457        -0.215122         0.152988
 C         2.827981        -0.118209         0.843162
 C         3.504480        -0.866818        -0.209557
 C         2.341870        -0.448834        -1.224510
 O         1.955118        -1.253752        -2.211053
 C         2.610718         1.056099        -1.344958
 C         2.149374         1.112718         0.169260
 O         1.448307         2.232422         0.696623
 H        -0.060953        -0.096667         1.738179
 H        -0.735320        -0.310913        -0.069083
 H        -0.115223        -1.582295         1.135928
 H         3.027967        -0.183007         1.907113
 H         4.573890        -0.613673        -0.515910
 H         3.408610        -2.003320        -0.128576
 H         2.746938        -1.404811        -2.754062
 H         3.732808         1.352404        -1.609525
 H         1.829278         1.591548        -2.012290
 H         2.094686         2.982741         0.802905
