19
Iteration:  2943
 C         0.018287        -0.597171         0.671567
 C         1.391114        -0.194160         0.110949
 C         2.782057        -0.045989         0.800487
 C         3.557272        -0.830951        -0.342027
 C         2.305432        -0.470290        -1.199630
 O         2.125432        -1.175332        -2.390688
 C         2.200763         1.040771        -1.362896
 C         2.078868         1.080832         0.139529
 O         1.782312         2.166416         0.993082
 H        -0.236299         0.001858         1.614469
 H        -0.787963        -0.388283        -0.095847
 H         0.007321        -1.616314         1.091722
 H         3.034806        -0.075945         1.902053
 H         4.377038        -0.243267        -0.482738
 H         3.621524        -1.878426        -0.174615
 H         2.253390        -2.101454        -2.104166
 H         3.074734         1.547903        -1.872948
 H         1.188689         1.361781        -1.760103
 H         2.595943         2.311279         1.529375
