19
Iteration:  4128
 C        -0.108238        -0.251288         0.462729
 C         1.349324        -0.150345         0.124456
 C         2.672225        -0.223350         0.832933
 C         3.386996        -1.000324        -0.274282
 C         2.303925        -0.444665        -1.183304
 O         2.094314        -1.288533        -2.348745
 C         2.569066         1.049224        -1.312864
 C         2.170701         1.142805         0.188784
 O         1.838312         2.165432         0.967883
 H        -0.647859        -0.810820        -0.334366
 H        -0.114732        -1.022361         1.290298
 H        -0.691668         0.627706         0.836721
 H         2.921198        -0.061959         1.874329
 H         4.397644        -0.713535        -0.393534
 H         3.422645        -2.116777        -0.042752
 H         1.401839        -1.927374        -2.098499
 H         3.555155         1.375353        -1.653466
 H         1.973363         1.541363        -2.096893
 H         2.395025         2.183523         1.755599
