19
Iteration:  2780charge 0 multiplicity 1
 C        -0.030042        -0.654174         0.599418
 C         1.354032        -0.212555         0.161297
 C         2.826554        -0.052729         0.795457
 C         3.521203        -0.811280        -0.245171
 C         2.387270        -0.473211        -1.192833
 O         2.118886        -1.202864        -2.330045
 C         2.265579         1.051884        -1.334140
 C         2.037945         1.093032         0.173442
 O         1.804170         2.249099         0.904412
 H         0.016067        -1.699607         0.523586
 H        -0.250931        -0.324063         1.593151
 H        -0.698017        -0.403746        -0.152355
 H         2.925152        -0.097233         1.859007
 H         4.396573        -0.352456        -0.658452
 H         3.366750        -1.871333        -0.088126
 H         1.882852        -2.140692        -2.015706
 H         2.874617         1.697474        -1.866356
 H         1.284360         1.274909        -1.751269
 H         2.746130         2.461803         0.986415
