19
Iteration:  1727
 C         0.032890        -0.772020         0.498542
 C         1.430412        -0.131500         0.231970
 C         2.746493         0.070329         0.844519
 C         3.490909        -0.812186        -0.206905
 C         2.288071        -0.518394        -1.131119
 O         2.049524        -1.306877        -2.199947
 C         2.423937         1.021222        -1.423371
 C         2.040007         1.197480         0.053993
 O         1.847919         2.242908         0.930415
 H        -0.656903        -0.533097         1.412801
 H        -0.432297        -0.641860        -0.475613
 H         0.152520        -1.909623         0.482117
 H         2.772556         0.395454         1.876346
 H         4.524960        -0.528308        -0.593261
 H         3.608865        -1.760493         0.276305
 H         1.195989        -1.852158        -2.268976
 H         3.334268         1.458265        -1.925338
 H         1.575428         1.252767        -2.200865
 H         1.800192         3.055426         0.439068
