19
Iteration:  1829charge 0 multiplicity 1
 C         0.169073        -0.609711         0.691864
 C         1.497349        -0.291641         0.124727
 C         2.757257        -0.004614         0.890927
 C         3.515440        -0.976312        -0.126667
 C         2.419513        -0.435308        -1.185530
 O         1.952428        -1.270298        -2.231149
 C         2.462532         1.120129        -1.492717
 C         2.047254         1.117945         0.081937
 O         1.529496         2.251385         0.740248
 H         0.110499        -0.150294         1.643442
 H        -0.649679        -0.228444         0.114495
 H         0.170704        -1.704241         1.028401
 H         2.885173         0.129520         2.002443
 H         4.549574        -0.748310        -0.324075
 H         3.345853        -2.103764         0.036073
 H         1.954974        -0.863977        -3.067022
 H         3.406596         1.584129        -1.761849
 H         1.509392         1.476815        -1.957586
 H         2.234646         2.431774         1.428996
