19
Iteration:  2652
 C         0.102758        -0.791602         0.409114
 C         1.424593        -0.214250         0.161139
 C         2.762158        -0.027429         0.902228
 C         3.501941        -0.797221        -0.225866
 C         2.331896        -0.390915        -1.171959
 O         1.937787        -1.335540        -2.088501
 C         2.384120         1.058393        -1.344917
 C         2.043108         1.097080         0.117893
 O         1.785192         2.302337         0.873013
 H        -0.424456        -0.155822        -0.305529
 H         0.036916        -1.848213         0.006175
 H        -0.133184        -0.921259         1.495550
 H         2.942588         0.144168         1.920328
 H         4.555197        -0.538447        -0.454277
 H         3.469758        -1.886422        -0.162129
 H         1.838994        -0.816998        -2.868360
 H         3.342911         1.467961        -1.807893
 H         1.513994         1.387192        -1.956889
 H         2.336117         3.056206         0.536036
