19
Iteration:  1803charge 0 multiplicity 1
 C         0.123319        -0.720997         0.665001
 C         1.423582        -0.190216         0.108045
 C         2.749441         0.077775         0.810476
 C         3.563358        -0.868977        -0.167873
 C         2.374919        -0.581936        -1.092393
 O         1.886103        -1.267969        -2.312049
 C         2.542867         0.956347        -1.354873
 C         2.125898         1.185841         0.114460
 O         1.552174         2.317653         0.742956
 H        -0.065659        -0.422358         1.772274
 H        -0.673122        -0.303625         0.044473
 H         0.189078        -1.749037         0.816437
 H         2.787481        -0.033887         1.864082
 H         4.527143        -0.421022        -0.546001
 H         3.709799        -1.852571         0.200201
 H         1.860219        -0.691752        -3.049386
 H         3.597131         1.197676        -1.515729
 H         1.739286         1.401168        -1.940018
 H         2.122572         2.356321         1.566798
