19
Iteration:  3026
 C         0.195642        -0.869183         0.531129
 C         1.471047        -0.179489         0.108997
 C         2.860212        -0.051745         0.839103
 C         3.535565        -0.932848        -0.200271
 C         2.324248        -0.414329        -1.139964
 O         1.729877        -1.024981        -2.339384
 C         2.548883         1.133087        -1.322962
 C         2.050853         1.147106         0.122070
 O         1.616345         2.214477         0.892113
 H        -0.643900        -0.205101         0.681031
 H        -0.108363        -1.644702        -0.144631
 H         0.410966        -1.500491         1.409003
 H         3.218869         0.051358         1.886538
 H         4.676390        -0.923596        -0.450801
 H         3.556202        -2.015974         0.130558
 H         1.232363        -1.795082        -2.056718
 H         3.563003         1.493793        -1.492999
 H         1.893516         1.490275        -2.075302
 H         2.466276         2.611888         1.117467
