19
Iteration:  4907
 C        -0.059499        -0.615757         0.514118
 C         1.281084        -0.091952         0.014993
 C         2.600704        -0.034689         0.860244
 C         3.385884        -0.982017        -0.059298
 C         2.281979        -0.554874        -1.154339
 O         2.025044        -1.455077        -2.218782
 C         2.664829         1.054524        -1.353503
 C         2.209084         1.199433         0.076818
 O         1.966375         2.411036         0.918903
 H        -0.804191         0.146987         0.321918
 H        -0.176544        -1.482980        -0.111694
 H        -0.130846        -0.803381         1.537818
 H         2.401402         0.113643         1.947506
 H         4.387378        -0.900028        -0.323708
 H         3.047508        -2.053706         0.134430
 H         1.416435        -1.207811        -2.953848
 H         3.683726         1.232454        -1.572674
 H         2.036551         1.447891        -2.194491
 H         1.578834         3.083413         0.344816
