19
Iteration:  3207charge 0 multiplicity 1
 C         0.117721        -0.788278         0.494683
 C         1.448715        -0.255584         0.149660
 C         2.815821        -0.139531         0.835958
 C         3.536064        -0.864253        -0.287499
 C         2.289899        -0.399618        -1.221136
 O         1.866102        -1.113480        -2.256368
 C         2.362027         1.131411        -1.286583
 C         2.074336         1.055945         0.163443
 O         1.789331         2.210170         1.005038
 H        -0.161881        -1.641452        -0.136698
 H         0.157084        -1.142219         1.549671
 H        -0.684420        -0.078777         0.557068
 H         3.192881        -0.251505         1.872669
 H         4.504054        -0.352528        -0.731084
 H         3.410283        -1.942936        -0.137262
 H         1.993966        -0.641199        -3.118789
 H         3.261635         1.648425        -1.576408
 H         1.534871         1.518198        -1.977671
 H         2.222323         3.021840         0.659801
