19
Iteration:   242
 C        -0.020836        -0.487214         0.018896
 C         1.359541        -0.024647        -0.040895
 C         2.545218        -0.031247         0.981515
 C         3.316762        -1.001517         0.001820
 C         2.398549        -0.460955        -1.066614
 O         1.879950        -1.389074        -2.084127
 C         2.808336         1.009908        -1.272754
 C         2.175389         1.177142         0.127954
 O         1.839884         2.328018         0.820911
 H        -0.594863        -0.300418         0.936701
 H        -0.640570        -0.436854        -0.820101
 H         0.068221        -1.681674         0.032693
 H         2.470336        -0.220248         2.067946
 H         4.411747        -0.886297        -0.158051
 H         3.067030        -2.023971         0.309360
 H         2.556189        -1.974455        -2.348985
 H         3.823060         1.224522        -1.510337
 H         2.074481         1.507546        -1.960333
 H         1.907235         2.174145         1.776055
