19
Iteration:   733
 C        -0.036242        -0.492380         0.437601
 C         1.305127        -0.066827        -0.026724
 C         2.663882        -0.057663         0.927656
 C         3.304779        -1.059833         0.023578
 C         2.351842        -0.491905        -1.142427
 O         2.124913        -1.158406        -2.364240
 C         2.770708         1.008758        -1.302964
 C         2.175255         1.114870         0.162496
 O         1.694400         2.212985         0.864425
 H        -0.414963        -0.054184         1.352392
 H        -0.927366        -0.488662        -0.416653
 H         0.079506        -1.570129         0.611822
 H         2.506276        -0.225916         1.976161
 H         4.407293        -0.931234        -0.216674
 H         2.975582        -2.096677         0.368855
 H         1.687267        -2.058285        -2.183224
 H         3.816502         1.179658        -1.614490
 H         2.039934         1.477121        -2.056081
 H         1.961065         3.013474         0.334561
