19
Iteration:  1726
 C         0.033514        -0.772531         0.502887
 C         1.424580        -0.128765         0.230992
 C         2.747572         0.069090         0.842453
 C         3.498104        -0.812618        -0.207880
 C         2.287792        -0.513538        -1.117362
 O         2.046181        -1.305365        -2.200719
 C         2.429811         1.024234        -1.419944
 C         2.034575         1.191298         0.045976
 O         1.849377         2.236382         0.929898
 H        -0.651161        -0.511274         1.399112
 H        -0.450275        -0.657687        -0.479661
 H         0.138589        -1.864164         0.458313
 H         2.771495         0.403093         1.882189
 H         4.521978        -0.529794        -0.626105
 H         3.609554        -1.747640         0.250820
 H         1.217376        -1.868406        -2.252500
 H         3.320114         1.481905        -1.915751
 H         1.616713         1.233456        -2.199075
 H         1.772626         3.049801         0.412581
