19
Iteration:  1947charge 0 multiplicity 1
 C         0.071511        -0.829569         0.519545
 C         1.386677        -0.194177         0.115311
 C         2.879282         0.100381         0.803992
 C         3.469912        -0.863731        -0.258261
 C         2.301230        -0.476945        -1.130844
 O         1.969010        -1.445409        -2.189368
 C         2.598650         1.190160        -1.247685
 C         2.061933         1.197082         0.122096
 O         1.627492         2.359928         0.757346
 H        -0.010439        -0.533743         1.670929
 H        -0.867625        -0.527504        -0.017209
 H         0.312504        -1.956887         0.544970
 H         3.038096        -0.019909         1.906890
 H         4.438700        -0.680878        -0.823598
 H         3.331744        -1.911092         0.146778
 H         1.010340        -1.246048        -2.473736
 H         3.600089         1.533133        -1.560087
 H         1.725159         1.352187        -1.921270
 H         2.302782         2.455070         1.454611
