19
Iteration:  1210charge 0 multiplicity 1
 C        -0.085837        -0.369068         0.329334
 C         1.414185        -0.182966         0.218192
 C         2.777398        -0.117789         0.911650
 C         3.517774        -0.966527        -0.075044
 C         2.336959        -0.533135        -1.069938
 O         2.046144        -1.306757        -2.352667
 C         2.620971         0.981840        -1.227893
 C         2.109689         1.118662         0.099940
 O         1.638882         2.280004         0.768237
 H        -0.404702         0.126768         1.235495
 H        -0.515302         0.161607        -0.461988
 H        -0.345653        -1.484822         0.372319
 H         3.022795        -0.139726         1.961907
 H         4.558430        -0.677696        -0.437898
 H         3.333861        -1.992929        -0.017780
 H         1.053007        -1.386087        -2.344776
 H         3.565639         1.351348        -1.625790
 H         1.866278         1.356930        -1.973016
 H         2.271954         2.506801         1.516000
