19
Iteration:   366charge 0 multiplicity 1
 C        -0.144112        -0.216631         0.345973
 C         1.290448         0.008165         0.036175
 C         2.520438        -0.091310         0.876533
 C         3.220984        -1.036795        -0.051701
 C         2.407150        -0.535870        -1.189535
 O         2.394219        -1.430431        -2.201485
 C         2.710363         0.965867        -1.380508
 C         2.169722         1.128261         0.104128
 O         1.786778         2.195110         0.973848
 H        -0.665222         0.399149         1.169718
 H        -0.773810        -0.017273        -0.589748
 H        -0.238200        -1.208491         0.774056
 H         2.486423        -0.060959         1.976306
 H         4.349192        -0.946226        -0.045636
 H         2.974890        -2.034917         0.179320
 H         1.974745        -1.154874        -2.979332
 H         3.781695         1.039041        -1.540868
 H         1.978302         1.478378        -2.019615
 H         0.816013         2.175414         0.941522
