19
Iteration:  3770charge 0 multiplicity 1
 C        -0.000618        -0.517019         0.491849
 C         1.447858        -0.155173         0.165829
 C         2.846238        -0.164797         0.770085
 C         3.487855        -1.064070        -0.377718
 C         2.333107        -0.427235        -1.140718
 O         1.841380        -1.013907        -2.365630
 C         2.604934         1.094078        -1.239774
 C         2.186298         1.135166         0.236425
 O         1.677175         2.083509         0.942725
 H        -0.641805         0.294140         0.891686
 H        -0.614306        -1.030866        -0.310788
 H         0.010967        -1.202941         1.425970
 H         2.945312        -0.335661         1.880406
 H         4.580609        -0.578123        -0.782038
 H         3.336972        -2.138799        -0.171714
 H         1.248281        -1.730434        -2.129486
 H         3.580197         1.430508        -1.619310
 H         1.841975         1.504547        -1.879968
 H         2.204168         2.438623         1.695417
