19
Iteration:  3959
 C        -0.106500        -0.347849         0.518750
 C         1.381840        -0.220029         0.086266
 C         2.759709        -0.218552         0.882154
 C         3.455784        -1.018490        -0.285548
 C         2.271354        -0.450355        -1.170877
 O         2.062145        -1.176398        -2.332438
 C         2.473591         1.080067        -1.284295
 C         2.252254         1.068362         0.179586
 O         1.794154         2.141205         0.966276
 H        -0.234222        -1.090590         1.336837
 H        -0.453473         0.694048         0.541757
 H        -0.620726        -0.874160        -0.300306
 H         2.920703        -0.380257         1.962451
 H         4.394729        -0.727127        -0.517413
 H         3.257789        -2.042192        -0.056616
 H         1.330985        -0.733316        -2.802248
 H         3.348221         1.512653        -1.778183
 H         1.544312         1.427604        -1.731001
 H         2.619537         2.620687         1.205179
