19
Iteration:  2855charge 0 multiplicity 1
 C         0.244535        -0.829760         0.520335
 C         1.518164        -0.273831         0.200115
 C         2.817672        -0.038882         0.879638
 C         3.529662        -0.940525        -0.243518
 C         2.376891        -0.518650        -1.161068
 O         1.705095        -0.978811        -2.271709
 C         2.562893         1.075185        -1.366300
 C         2.107225         1.191111         0.092802
 O         1.546731         2.242560         0.891234
 H         0.179864        -1.350850         1.535287
 H        -0.466243         0.024816         0.573867
 H         0.009288        -1.491434        -0.337010
 H         3.089471        -0.016213         1.952430
 H         4.642213        -0.934944        -0.290325
 H         3.125842        -1.901615         0.179981
 H         1.743654        -1.947208        -2.284910
 H         3.568675         1.445340        -1.678131
 H         1.828344         1.508109        -2.072912
 H         2.009811         3.049047         0.557419
