19
Iteration:  3128charge 0 multiplicity 1
 C         0.116156        -0.655366         0.600668
 C         1.455857        -0.162899         0.155119
 C         2.909793        -0.152123         0.815025
 C         3.531457        -0.860087        -0.348609
 C         2.284652        -0.431484        -1.237959
 O         1.879045        -1.175048        -2.362286
 C         2.380122         1.127331        -1.289923
 C         2.162639         1.081452         0.220367
 O         1.579955         2.178874         0.970006
 H        -0.746388        -0.290821         0.027522
 H         0.062003        -1.707398         0.653039
 H        -0.070182        -0.189426         1.548333
 H         3.156073        -0.118300         1.860468
 H         4.678458        -0.610467        -0.619744
 H         3.438721        -1.976845        -0.364638
 H         2.626088        -1.774344        -2.578463
 H         3.280586         1.528540        -1.698318
 H         1.448903         1.546811        -1.682151
 H         2.337939         2.740698         1.264211
