19
Iteration:  2104
 C         0.033527        -0.722450         0.560936
 C         1.419495        -0.150503         0.093229
 C         2.994881         0.068626         0.827036
 C         3.455611        -0.867674        -0.341922
 C         2.277152        -0.397810        -1.206764
 O         2.044197        -1.434789        -2.131032
 C         2.487704         1.161256        -1.301763
 C         2.161027         1.131416         0.165992
 O         1.568189         2.247951         0.781774
 H        -0.421734        -0.119821         1.319998
 H        -0.665074        -0.632420        -0.320154
 H        -0.088868        -1.758798         1.065549
 H         3.265456        -0.194128         1.885622
 H         4.539401        -0.836680        -0.542857
 H         3.177696        -1.951717        -0.045610
 H         1.172291        -1.190609        -2.431356
 H         3.460459         1.569227        -1.603802
 H         1.637253         1.513152        -1.913421
 H         1.834962         2.487442         1.718836
