19
Iteration:  3567
 C         0.012946        -0.725537         0.603236
 C         1.349488        -0.352668         0.095817
 C         2.738470        -0.207155         0.778205
 C         3.464788        -0.834340        -0.356521
 C         2.253577        -0.408645        -1.235632
 O         1.964980        -1.127267        -2.387041
 C         2.426245         1.193378        -1.237034
 C         2.245838         1.126707         0.259727
 O         1.915269         2.301615         0.952043
 H        -0.054195        -0.929148         1.697961
 H        -0.623851         0.082883         0.256476
 H        -0.362121        -1.614372         0.118496
 H         3.004288        -0.384977         1.839446
 H         4.540088        -0.580765        -0.641162
 H         3.507739        -1.929299        -0.298136
 H         1.124363        -1.596656        -2.352452
 H         3.358699         1.592147        -1.615762
 H         1.570690         1.713801        -1.657834
 H         1.622450         1.936069         1.823424
