19
Iteration:  2716charge 0 multiplicity 1
 C         0.156038        -0.596398         0.779525
 C         1.449532        -0.295173         0.072058
 C         2.768487        -0.184498         0.766493
 C         3.526977        -0.917446        -0.298861
 C         2.318026        -0.395087        -1.227923
 O         1.917208        -1.250219        -2.208230
 C         2.571301         1.194835        -1.309912
 C         2.124499         1.113063         0.142721
 O         1.491483         2.283971         0.726269
 H        -0.502699        -1.149189         0.115743
 H         0.183556        -1.351998         1.629971
 H        -0.461145         0.331995         0.949883
 H         2.961218        -0.172226         1.807247
 H         4.607065        -0.644991        -0.396571
 H         3.513865        -2.026458        -0.155522
 H         2.699376        -1.651614        -2.598524
 H         3.637669         1.612988        -1.484394
 H         1.736099         1.725129        -1.809286
 H         1.751800         2.327843         1.663095
