19
Iteration:   243charge 0 multiplicity 1
 C        -0.014742        -0.495824         0.018292
 C         1.357779        -0.025284        -0.043877
 C         2.541592        -0.027579         0.979195
 C         3.310035        -1.010130        -0.004833
 C         2.395727        -0.462691        -1.064141
 O         1.880985        -1.383094        -2.072909
 C         2.805427         1.011115        -1.275046
 C         2.183195         1.191791         0.132384
 O         1.837743         2.319125         0.812632
 H        -0.579495        -0.299798         0.965987
 H        -0.623382        -0.396732        -0.836948
 H         0.098604        -1.662202         0.040978
 H         2.456328        -0.237728         2.054698
 H         4.426021        -0.941619        -0.132235
 H         3.051303        -1.986548         0.292907
 H         2.592114        -1.936694        -2.349330
 H         3.816126         1.212997        -1.499213
 H         2.055980         1.515921        -1.941221
 H         1.913855         2.161790         1.777379
