19
Iteration:   578
 C        -0.129647        -0.219594         0.306808
 C         1.344320        -0.227721        -0.034157
 C         2.604676        -0.123434         0.935441
 C         3.467828        -0.983987        -0.058018
 C         2.410220        -0.492534        -1.174220
 O         2.116920        -1.386391        -2.292521
 C         2.745028         1.124409        -1.235287
 C         2.158863         1.088581         0.115397
 O         1.683794         2.171884         0.935924
 H        -0.303638         0.412040         1.167632
 H        -0.939690        -0.025247        -0.552694
 H        -0.425357        -1.170720         0.807089
 H         2.403393        -0.163483         2.016878
 H         4.548533        -0.849200        -0.251387
 H         3.374204        -2.128767         0.120954
 H         1.548726        -2.049500        -1.942695
 H         3.794365         1.569058        -1.213872
 H         2.019080         1.491428        -1.942701
 H         1.621012         2.920137         0.334412
