19
Iteration:  4794charge 0 multiplicity 1
 C        -0.016536        -0.325673         0.479534
 C         1.384553        -0.143122         0.086513
 C         2.644926        -0.084345         0.797164
 C         3.485178        -1.000572        -0.123856
 C         2.336970        -0.538980        -1.183489
 O         1.990549        -1.450416        -2.203074
 C         2.655213         0.976370        -1.360732
 C         2.121830         1.217938         0.097923
 O         1.808788         2.237930         0.972851
 H        -0.693246        -0.672115        -0.341554
 H        -0.190864        -1.114634         1.204615
 H        -0.579812         0.616455         0.635172
 H         2.597673        -0.043450         1.911794
 H         4.488106        -0.574498        -0.501917
 H         3.437499        -2.064912         0.175939
 H         1.247778        -0.926038        -2.559632
 H         3.818924         1.126413        -1.560094
 H         2.081131         1.513526        -2.113005
 H         1.326044         2.876790         0.435905
