19
Iteration:  2049charge 0 multiplicity 1
 C         0.052506        -0.591014         0.589004
 C         1.430981        -0.258752         0.104264
 C         2.798703        -0.051123         0.919722
 C         3.579575        -0.821253        -0.218080
 C         2.301439        -0.496781        -1.182819
 O         2.060277        -1.357005        -2.289307
 C         2.361566         1.037315        -1.381306
 C         2.121568         1.118679         0.138210
 O         1.626384         2.282670         0.871199
 H        -0.246281         0.206490         1.237292
 H        -0.786558        -0.874897        -0.112401
 H         0.238521        -1.603246         1.132388
 H         3.029890         0.012395         1.994332
 H         4.619634        -0.439891        -0.295183
 H         3.655132        -1.938543         0.059036
 H         1.521151        -0.850783        -2.866062
 H         3.152554         1.507989        -1.980776
 H         1.411987         1.533814        -1.636859
 H         2.318183         2.951991         0.641359
