19
Iteration:  3135
 C         0.113899        -0.650657         0.604168
 C         1.489359        -0.224796         0.131396
 C         2.907175        -0.152184         0.799243
 C         3.513053        -0.909067        -0.400993
 C         2.321094        -0.398010        -1.211497
 O         1.858786        -1.175315        -2.323264
 C         2.396874         1.184223        -1.272896
 C         2.212510         1.117514         0.227605
 O         1.531508         2.166332         0.966559
 H        -0.704478        -0.421302        -0.105232
 H         0.038166        -1.748229         0.795622
 H        -0.034338        -0.087996         1.576594
 H         3.147521        -0.311904         1.858695
 H         4.442432        -0.527115        -0.642818
 H         3.298041        -1.948934        -0.077888
 H         2.567832        -1.812123        -2.630973
 H         3.348579         1.537958        -1.741968
 H         1.585177         1.606081        -1.808709
 H         2.263921         2.824632         1.071022
