19
Iteration:  3603
 C         0.121479        -0.839806         0.504881
 C         1.505832        -0.191929         0.108565
 C         2.781203        -0.109624         0.774026
 C         3.418303        -0.958397        -0.300932
 C         2.312111        -0.412022        -1.174552
 O         1.709762        -1.004647        -2.301332
 C         2.565867         1.090925        -1.313533
 C         2.185726         1.120865         0.156687
 O         1.775669         2.306372         1.012782
 H        -0.059505        -1.171385         1.538179
 H        -0.666813        -0.057746         0.360006
 H        -0.137561        -1.658036        -0.193334
 H         3.023363        -0.319580         1.829412
 H         4.419177        -0.897005        -0.582918
 H         3.006384        -1.892952        -0.072285
 H         2.300582        -1.708006        -2.620318
 H         3.535613         1.492590        -1.563922
 H         1.831351         1.572067        -1.974679
 H         1.946116         2.000859         1.944725
