19
Iteration:  2621charge 0 multiplicity 1
 C        -0.034753        -0.892387         0.438994
 C         1.304909        -0.222777         0.113537
 C         2.750695        -0.061657         0.871226
 C         3.486833        -0.792573        -0.274465
 C         2.307668        -0.438091        -1.184099
 O         2.130855        -1.474874        -2.173279
 C         2.390499         1.180835        -1.330448
 C         2.111829         1.159101         0.195158
 O         1.856870         2.484130         0.918690
 H        -0.868469        -0.124051         0.387164
 H        -0.115010        -1.587875        -0.374525
 H        -0.228211        -1.116936         1.478152
 H         2.832343        -0.107264         1.922234
 H         4.449733        -0.425553        -0.698591
 H         3.643897        -1.867059        -0.304578
 H         1.130974        -1.564451        -2.379046
 H         3.321248         1.426495        -1.779256
 H         1.423305         1.412438        -1.718121
 H         2.461810         3.187803         0.701500
