19
Iteration:   880charge 0 multiplicity 1
 C        -0.056201        -0.726305         0.340157
 C         1.290029        -0.219780         0.044579
 C         2.631913        -0.161423         0.958135
 C         3.448507        -1.062203        -0.018897
 C         2.405273        -0.579668        -0.996941
 O         2.005990        -0.950536        -2.272818
 C         2.615007         0.953264        -1.263239
 C         2.072722         1.181354         0.173949
 O         1.828709         2.424888         0.651850
 H        -0.242170        -0.168311         1.334366
 H        -0.767207        -0.324164        -0.317281
 H        -0.328347        -1.852634         0.499522
 H         2.819579        -0.134050         2.035162
 H         4.556499        -0.752067        -0.177950
 H         3.216821        -1.996797         0.381329
 H         1.852429        -1.850114        -2.415652
 H         3.676170         1.144936        -1.452555
 H         2.064938         1.298137        -2.097462
 H         2.564636         3.006581         0.401276
