19
Iteration:   494charge 0 multiplicity 1
 C        -0.133869        -0.667716         0.315071
 C         1.241145         0.007690        -0.086506
 C         2.404283        -0.119895         0.878238
 C         3.259215        -1.049849        -0.019935
 C         2.352686        -0.452033        -1.136136
 O         2.074195        -1.286353        -2.183746
 C         2.842461         1.020167        -1.222669
 C         2.246695         1.197503         0.154892
 O         1.870826         2.362177         0.777233
 H        -0.317315        -0.233504         1.303411
 H        -0.917337        -0.431504        -0.302129
 H         0.020066        -1.814742         0.295494
 H         2.373066        -0.130312         1.989903
 H         4.300986        -0.731755        -0.204960
 H         3.117659        -2.088623         0.102311
 H         2.872729        -1.888572        -2.368669
 H         3.820877         1.410849        -1.424900
 H         2.210245         1.624500        -1.917770
 H         2.500445         2.419843         1.541625
