19
Iteration:  2481charge 0 multiplicity 1
 C        -0.044990        -0.670931         0.451457
 C         1.382279        -0.206360         0.136379
 C         2.788415         0.060357         0.849324
 C         3.515050        -0.822072        -0.173719
 C         2.328507        -0.488640        -1.100602
 O         2.120147        -1.413433        -2.183219
 C         2.355813         1.031965        -1.437066
 C         2.071410         1.177092         0.148559
 O         1.771639         2.283378         0.924519
 H        -0.149691        -1.023322         1.548719
 H        -0.740854         0.097267         0.102047
 H        -0.252116        -1.602429        -0.093302
 H         3.070467         0.136777         1.853603
 H         4.596566        -0.650094        -0.450064
 H         3.429236        -1.900306         0.157556
 H         1.657975        -1.066109        -2.970214
 H         3.341086         1.375752        -1.945935
 H         1.376680         1.319013        -1.946613
 H         2.306093         2.983300         0.514984
