19
Iteration:  1817charge 0 multiplicity 1
 C         0.228414        -0.616084         0.687786
 C         1.467056        -0.185468         0.096910
 C         2.786182        -0.045553         0.826870
 C         3.625369        -0.888731        -0.062855
 C         2.306739        -0.517338        -1.206731
 O         1.906244        -1.274897        -2.285160
 C         2.479169         1.017480        -1.352241
 C         1.994237         1.148968         0.056853
 O         1.553026         2.274157         0.757129
 H         0.148163        -0.105610         1.637153
 H        -0.634809        -0.423534         0.103928
 H         0.077348        -1.755161         0.640739
 H         2.886813         0.020146         1.935075
 H         4.697277        -0.813660        -0.185187
 H         3.391160        -1.958192         0.286125
 H         1.916167        -0.574761        -3.009675
 H         3.375735         1.476503        -1.750293
 H         1.786011         1.289084        -2.230801
 H         2.010082         2.465892         1.566236
