19
Iteration:  3103
 C         0.015800        -0.739366         0.608546
 C         1.406297        -0.319022         0.184506
 C         2.796280        -0.065869         0.766678
 C         3.484799        -0.727952        -0.319127
 C         2.307638        -0.510890        -1.179672
 O         2.012051        -1.115798        -2.367728
 C         2.245592         1.120415        -1.367666
 C         2.081399         1.093623         0.123448
 O         1.846930         2.244035         1.004397
 H        -0.742088         0.033532         0.439148
 H        -0.347671        -1.718067         0.331418
 H        -0.023715        -0.622869         1.720295
 H         2.930175        -0.117980         1.855178
 H         4.551064        -0.246607        -0.563941
 H         3.779465        -1.826603        -0.099584
 H         2.431316        -1.975565        -2.428746
 H         3.210054         1.388645        -1.736780
 H         1.426423         1.307057        -1.947812
 H         2.640399         2.094663         1.549045
