19
Iteration:  3831charge 0 multiplicity 1
 C        -0.069430        -0.838829         0.401985
 C         1.304018        -0.191120         0.140124
 C         2.661777        -0.179681         0.810048
 C         3.345710        -0.911716        -0.311583
 C         2.257199        -0.324577        -1.168193
 O         1.929805        -1.190328        -2.258124
 C         2.537976         1.151825        -1.284392
 C         2.130570         1.120854         0.244884
 O         2.060628         2.296092         1.004405
 H        -0.498190        -0.179370         1.151631
 H        -0.778058        -0.958305        -0.402286
 H         0.172618        -1.808257         0.750166
 H         2.925365        -0.260304         1.856465
 H         4.400888        -0.678428        -0.371002
 H         3.281099        -2.023437        -0.351346
 H         2.042851        -0.665563        -3.081026
 H         3.552880         1.164412        -1.783576
 H         1.759032         1.738250        -1.883087
 H         2.935891         2.632104         1.299794
