19
Iteration:  3777
 C         0.010537        -0.558788         0.503627
 C         1.402805        -0.180825         0.089224
 C         2.846923        -0.178904         0.828129
 C         3.470302        -1.007421        -0.346793
 C         2.335345        -0.492243        -1.158643
 O         1.812934        -0.988606        -2.353815
 C         2.582681         1.145565        -1.270290
 C         2.241382         1.091623         0.191770
 O         1.688498         2.153990         0.982677
 H        -0.587350         0.294081         0.849680
 H        -0.453611        -1.045640        -0.357364
 H        -0.045983        -1.245914         1.349425
 H         3.085139        -0.250947         1.869885
 H         4.442129        -0.904632        -0.647431
 H         3.327484        -2.052336        -0.141094
 H         1.525479        -1.906795        -2.153119
 H         3.603405         1.360091        -1.585128
 H         1.797942         1.556063        -1.943239
 H         2.256573         2.303078         1.758511
