19
Iteration:  3101charge 0 multiplicity 1
 C        -0.004322        -0.753417         0.600886
 C         1.383203        -0.332009         0.162582
 C         2.808663        -0.061877         0.758263
 C         3.491651        -0.705177        -0.305605
 C         2.299773        -0.515347        -1.184279
 O         2.029081        -1.110269        -2.356473
 C         2.241191         1.112137        -1.369452
 C         2.073767         1.100766         0.124289
 O         1.869881         2.253394         1.006250
 H        -0.738629         0.064392         0.500096
 H        -0.430195        -1.796900         0.356586
 H         0.026864        -0.686483         1.760673
 H         2.946543        -0.112049         1.859648
 H         4.490351        -0.368580        -0.526543
 H         3.813735        -1.796915        -0.187796
 H         2.368376        -2.056074        -2.387196
 H         3.264464         1.431457        -1.737993
 H         1.344514         1.352378        -1.958667
 H         2.657598         2.118529         1.589163
