19
Iteration:  4471
 C        -0.066143        -0.560369         0.320321
 C         1.312434        -0.076688         0.115325
 C         2.573683        -0.090127         0.910800
 C         3.414458        -1.026694        -0.114837
 C         2.265230        -0.573596        -1.102997
 O         1.968813        -1.376270        -2.181749
 C         2.607868         1.005470        -1.324550
 C         2.161566         1.216509         0.104572
 O         2.097400         2.369560         0.844969
 H        -0.224123        -1.329290        -0.439551
 H        -0.029929        -1.269678         1.201339
 H        -0.992470         0.036606         0.492326
 H         2.706662         0.467852         1.924682
 H         4.454123        -0.750693        -0.319787
 H         3.297340        -2.079083         0.042822
 H         1.506285        -0.843706        -2.842093
 H         3.600451         1.379790        -1.444858
 H         1.790053         1.427067        -1.944255
 H         1.276299         2.900269         0.930823
