19
Iteration:  2918charge 0 multiplicity 1
 C         0.012871        -0.641230         0.746556
 C         1.398671        -0.277953         0.113553
 C         2.685547        -0.082630         0.807036
 C         3.506544        -0.714718        -0.293666
 C         2.304528        -0.469871        -1.249425
 O         2.131322        -1.234274        -2.399389
 C         2.304847         1.080497        -1.477576
 C         2.009816         1.073346         0.101515
 O         1.843627         2.259508         1.034896
 H         0.090481        -0.609302         1.876517
 H        -0.735892         0.027477         0.359233
 H        -0.301142        -1.715586         0.683725
 H         2.965698        -0.166273         1.847811
 H         4.462147        -0.152665        -0.547992
 H         3.595483        -1.795212        -0.126747
 H         2.160229        -2.147886        -2.150905
 H         3.271949         1.597324        -1.801876
 H         1.416519         1.525239        -1.924573
 H         2.459268         1.999830         1.740344
