19
Iteration:  3178charge 0 multiplicity 1
 C         0.121979        -0.691640         0.585778
 C         1.488077        -0.244762         0.125574
 C         2.873730        -0.069904         0.801699
 C         3.608678        -0.864835        -0.282597
 C         2.319922        -0.486808        -1.254569
 O         1.664610        -1.067263        -2.292273
 C         2.580076         1.122263        -1.300992
 C         2.174896         1.097359         0.170213
 O         1.564253         2.111533         1.019080
 H        -0.436113        -1.322033        -0.139848
 H         0.215858        -1.538782         1.372346
 H        -0.608226         0.153445         0.825229
 H         3.201590        -0.318658         1.800822
 H         4.475418        -0.433941        -0.763005
 H         3.741308        -1.926416         0.070634
 H         2.325514        -1.183446        -3.039920
 H         3.673192         1.557448        -1.500832
 H         1.818591         1.494638        -1.995781
 H         1.565345         3.038873         0.719434
