19
Iteration:  4385charge 0 multiplicity 1
 C        -0.038131        -0.394433         0.501939
 C         1.371585        -0.163928         0.085737
 C         2.707136        -0.131248         0.891061
 C         3.357196        -1.019868        -0.113230
 C         2.345836        -0.496578        -1.128726
 O         1.959362        -1.254185        -2.244462
 C         2.726576         1.032162        -1.317966
 C         2.210418         1.091816         0.093054
 O         1.805426         2.207198         0.803480
 H        -0.305667        -1.486609         0.621471
 H        -0.345998         0.256309         1.376699
 H        -0.635514         0.049068        -0.341068
 H         2.823873        -0.175536         2.012576
 H         4.467361        -0.839011        -0.151662
 H         3.142816        -2.003705         0.198987
 H         0.994642        -1.117701        -2.363092
 H         3.763216         1.399271        -1.508173
 H         2.151606         1.552751        -2.019811
 H         1.209281         2.664586         0.199364
