19
Iteration:  3592
 C         0.149594        -0.758108         0.540529
 C         1.349527        -0.168640         0.101760
 C         2.810201        -0.179516         0.843962
 C         3.436717        -0.991751        -0.332436
 C         2.375390        -0.360384        -1.245292
 O         1.781103        -1.017063        -2.298746
 C         2.521693         1.145085        -1.291467
 C         2.090553         1.164214         0.190280
 O         1.825455         2.234664         0.955160
 H         0.129450        -1.169862         1.567216
 H        -0.676821        -0.030038         0.318281
 H        -0.022678        -1.588485        -0.185820
 H         2.953470        -0.280076         1.957538
 H         4.433774        -0.879000        -0.606826
 H         3.366923        -2.043338        -0.289597
 H         1.933383        -1.957598        -2.220559
 H         3.495153         1.477761        -1.619173
 H         1.646537         1.503408        -1.860513
 H         1.885800         1.865376         1.855987
