19
Iteration:  3628charge 0 multiplicity 1
 C         0.105197        -0.851715         0.490746
 C         1.396702        -0.098191         0.081434
 C         2.836621        -0.087984         0.864753
 C         3.474944        -0.985673        -0.299409
 C         2.283734        -0.422931        -1.148405
 O         1.686466        -1.115989        -2.335878
 C         2.572567         1.121477        -1.194298
 C         2.150621         1.083965         0.204242
 O         1.796779         2.281264         0.922250
 H        -0.092581        -1.223625         1.486409
 H        -0.782217        -0.229547         0.208211
 H         0.070417        -1.685487        -0.265265
 H         3.138919        -0.234693         1.861821
 H         4.394356        -0.750125        -0.706857
 H         3.331220        -2.044029        -0.177039
 H         1.978875        -0.591874        -3.081850
 H         3.639005         1.480805        -1.404496
 H         1.886721         1.746511        -1.778618
 H         2.504407         2.356541         1.601394
