19
Iteration:  3903
 C         0.033152        -0.463413         0.490548
 C         1.446544        -0.116434         0.089556
 C         2.787616        -0.235726         0.865807
 C         3.455480        -0.995417        -0.283978
 C         2.286742        -0.417829        -1.191225
 O         1.796313        -1.073079        -2.347315
 C         2.645222         1.074450        -1.207780
 C         2.196351         1.087595         0.157161
 O         1.664137         2.110131         0.916421
 H         0.010870        -0.670457         1.575898
 H        -0.709287         0.361802         0.465607
 H        -0.296832        -1.260845        -0.215577
 H         3.161341        -0.189900         1.847981
 H         4.452635        -0.926576        -0.576951
 H         3.226916        -2.047486        -0.161649
 H         2.147134        -1.968722        -2.277068
 H         3.693136         1.314017        -1.226301
 H         2.055833         1.568092        -1.943283
 H         2.323148         2.603146         1.470207
