19
Iteration:  1673
 C         0.123282        -0.574246         0.548330
 C         1.472787        -0.096868         0.151749
 C         2.814095        -0.167062         0.940411
 C         3.467590        -0.926248        -0.204651
 C         2.308077        -0.506446        -1.149123
 O         1.929980        -1.290522        -2.279775
 C         2.488691         1.039895        -1.301318
 C         2.160708         1.182514         0.168259
 O         1.612209         2.339613         0.694386
 H        -0.157407         0.013572         1.513602
 H        -0.750671        -0.402648        -0.074540
 H         0.210684        -1.712858         0.749190
 H         3.068520        -0.108693         2.011729
 H         4.443234        -0.392331        -0.421907
 H         3.650516        -2.013593         0.015514
 H         2.598473        -1.997325        -2.566080
 H         3.487146         1.348115        -1.724254
 H         1.651813         1.540422        -1.945557
 H         0.754285         2.099089         1.070280
