19
Iteration:  1532charge 0 multiplicity 1
 C         0.069030        -0.765506         0.466783
 C         1.371865        -0.124762         0.045206
 C         2.656535        -0.056263         0.922282
 C         3.440178        -0.843124        -0.142268
 C         2.349502        -0.477118        -1.122471
 O         1.897176        -1.282471        -2.219060
 C         2.597139         1.088463        -1.372083
 C         2.110843         1.176689         0.170991
 O         1.804904         2.340532         0.751925
 H        -0.493865        -0.390817         1.287072
 H        -0.625689        -0.769059        -0.378393
 H         0.415763        -1.865471         0.501652
 H         2.634701        -0.082035         2.029125
 H         4.421905        -0.417766        -0.271314
 H         3.502224        -1.939479         0.168731
 H         1.690005        -2.203939        -1.831579
 H         3.529342         1.351092        -1.879294
 H         1.685784         1.338804        -1.987203
 H         2.519926         2.651894         1.319157
