19
Iteration:  1301
 C         0.059028        -0.684114         0.507931
 C         1.379719        -0.077532         0.017221
 C         2.637995        -0.011103         0.894982
 C         3.366353        -0.963317        -0.008718
 C         2.325330        -0.521871        -1.131243
 O         1.927616        -1.248743        -2.257172
 C         2.706061         1.058488        -1.389153
 C         2.079661         1.162870         0.110801
 O         1.828613         2.253727         0.857295
 H        -0.238185        -0.149254         1.387532
 H        -0.760060        -0.422227        -0.154330
 H         0.199987        -1.746549         0.720513
 H         2.636395        -0.024545         2.008202
 H         4.431166        -0.783749        -0.207281
 H         3.087709        -2.055973         0.135450
 H         2.641884        -1.658566        -2.855700
 H         3.681315         1.407066        -1.793229
 H         1.816435         1.458762        -1.999374
 H         1.411845         2.907326         0.250780
