19
Iteration:  4222charge 0 multiplicity 1
 C         0.039348        -0.517706         0.338875
 C         1.394583        -0.114741         0.044485
 C         2.710541        -0.148490         0.943676
 C         3.345179        -1.086505        -0.098298
 C         2.300167        -0.404427        -1.130353
 O         1.753335        -1.231330        -2.240654
 C         2.729564         1.033717        -1.211339
 C         2.179062         1.105120         0.111522
 O         1.837528         2.282309         0.884598
 H        -0.761877         0.206959         0.285094
 H        -0.305202        -1.320134        -0.288195
 H        -0.010649        -0.955389         1.283358
 H         2.608249        -0.255824         1.972885
 H         4.416220        -1.049335        -0.468157
 H         3.186361        -2.100648         0.080651
 H         2.254548        -0.833055        -2.976752
 H         3.739842         1.258149        -1.530828
 H         2.208649         1.477835        -1.999349
 H         2.477817         2.922972         0.477048
