19
Iteration:  2527
 C         0.021239        -0.586876         0.690525
 C         1.437315        -0.207866         0.151542
 C         2.825129        -0.115834         0.837141
 C         3.502727        -0.871591        -0.223435
 C         2.343348        -0.456435        -1.211079
 O         1.956419        -1.251982        -2.215083
 C         2.611759         1.066712        -1.334298
 C         2.149869         1.117600         0.182442
 O         1.444323         2.226183         0.681480
 H        -0.085838        -0.087484         1.698880
 H        -0.723128        -0.331714        -0.082751
 H        -0.081024        -1.576448         1.148407
 H         3.042981        -0.178393         1.931794
 H         4.550215        -0.644936        -0.555455
 H         3.428275        -2.003608        -0.141560
 H         2.725984        -1.445970        -2.729454
 H         3.718233         1.343533        -1.559082
 H         1.847207         1.592553        -2.009690
 H         2.109771         2.964448         0.829600
