19
Iteration:  4665charge 0 multiplicity 1
 C         0.041894        -0.553624         0.338747
 C         1.412269        -0.099047         0.027061
 C         2.654030        -0.083450         0.943929
 C         3.342479        -1.044447        -0.096338
 C         2.287723        -0.563843        -1.138572
 O         1.795543        -1.295489        -2.168834
 C         2.759536         1.081388        -1.289265
 C         2.202564         1.191409         0.119552
 O         1.822566         2.370466         0.840473
 H        -0.912969        -0.155633        -0.143653
 H        -0.134256        -1.666960         0.348398
 H         0.052317        -0.540829         1.458351
 H         2.994633        -0.017553         2.040141
 H         4.361310        -0.775224        -0.163256
 H         3.332938        -2.186374         0.134677
 H         2.374716        -2.002300        -2.478144
 H         3.738389         1.263036        -1.687895
 H         2.058934         1.414129        -2.066592
 H         1.491015         2.906461         0.067697
