19
Iteration:  2260
 C         0.016470        -0.611934         0.588399
 C         1.377767        -0.204285         0.110068
 C         2.879569        -0.081994         0.866563
 C         3.666022        -0.757608        -0.266901
 C         2.349308        -0.456793        -1.160065
 O         1.931427        -1.377790        -2.276623
 C         2.515598         1.049101        -1.284643
 C         2.100554         1.106278         0.155914
 O         1.568281         2.249284         0.801476
 H        -0.461019         0.249333         1.110293
 H        -0.562525        -0.853721        -0.324675
 H         0.025183        -1.610781         0.998938
 H         2.968838        -0.054631         1.940721
 H         4.648836        -0.288116        -0.555013
 H         3.781863        -1.824851        -0.194355
 H         0.980591        -1.180871        -2.270664
 H         3.394489         1.582296        -1.565014
 H         1.838133         1.452876        -1.979517
 H         2.181721         2.634242         1.437097
