19
Iteration:  2699
 C         0.177945        -0.679630         0.615678
 C         1.497402        -0.239887         0.152193
 C         2.804153        -0.041577         0.892347
 C         3.484065        -0.844040        -0.260788
 C         2.373121        -0.422328        -1.154951
 O         1.803484        -1.215686        -2.214630
 C         2.574321         1.114156        -1.343540
 C         2.134311         1.110735         0.118035
 O         1.503460         2.208544         0.727072
 H        -0.544579        -0.960884        -0.197327
 H         0.249223        -1.461246         1.367009
 H        -0.110373         0.131674         1.262838
 H         2.911328        -0.296783         1.977701
 H         4.486298        -0.708336        -0.704747
 H         3.371008        -1.925911        -0.100892
 H         2.520440        -1.313695        -2.878977
 H         3.606563         1.307541        -1.570911
 H         1.888271         1.517069        -2.086379
 H         1.809131         2.430104         1.611653
