19
Iteration:  3321
 C         0.088417        -0.708784         0.588911
 C         1.561505        -0.259615         0.208051
 C         2.998338        -0.204356         0.778252
 C         3.466129        -0.971487        -0.395889
 C         2.297283        -0.379772        -1.205362
 O         1.788576        -0.961527        -2.372001
 C         2.476200         1.141250        -1.233027
 C         2.180015         1.050885         0.317388
 O         1.574735         2.247989         0.853096
 H        -0.046006        -1.157276         1.549336
 H        -0.578338         0.166714         0.855866
 H        -0.297277        -1.348359        -0.233293
 H         3.585561        -0.347316         1.706471
 H         4.427490        -0.688204        -0.888071
 H         3.214508        -2.053992        -0.130960
 H         2.365913        -1.783257        -2.529393
 H         3.470278         1.519958        -1.576247
 H         1.716352         1.578541        -1.787510
 H         1.165146         2.096313         1.742457
