19
Iteration:  3912charge 0 multiplicity 1
 C        -0.011800        -0.392425         0.511702
 C         1.376212        -0.168640         0.063809
 C         2.847499        -0.210125         0.805350
 C         3.491270        -1.029976        -0.307587
 C         2.312193        -0.449144        -1.169404
 O         1.795099        -1.105115        -2.324694
 C         2.691231         1.048216        -1.276142
 C         2.197268         1.085371         0.248044
 O         1.634921         2.123583         0.963057
 H         0.094011        -0.881239         1.485370
 H        -0.516039         0.595479         0.389688
 H        -0.529576        -1.258356        -0.025178
 H         2.828710        -0.239467         1.886226
 H         4.399508        -0.739341        -0.756042
 H         3.298515        -2.048129        -0.085843
 H         2.422957        -1.759185        -2.661917
 H         3.787925         1.332571        -1.420245
 H         2.058669         1.764416        -1.790512
 H         2.074489         2.906511         1.366034
