19
Iteration:    69charge 0 multiplicity 1
 C        -0.151851        -0.519566        -0.062819
 C         1.290475        -0.038431         0.103301
 C         2.637652        -0.066728         0.943026
 C         3.365535        -1.046259         0.124469
 C         2.428856        -0.530132        -1.042640
 O         2.052630        -1.359621        -2.097679
 C         2.591763         0.955667        -1.282331
 C         2.202653         1.150684         0.136691
 O         1.864012         2.357420         0.789154
 H        -0.896820        -0.132720         0.747233
 H        -0.683449        -0.145239        -0.966651
 H        -0.236879        -1.549407        -0.077870
 H         3.081202         0.205999         1.939972
 H         4.522498        -0.930337         0.090768
 H         3.074556        -2.040695         0.225388
 H         1.877780        -0.811322        -2.949161
 H         3.609524         1.209443        -1.612223
 H         1.801179         1.450822        -1.939667
 H         2.465497         2.483146         1.563321
