19
Iteration:  2594
 C         0.094204        -0.751581         0.531062
 C         1.343634        -0.178331         0.104012
 C         2.740156         0.018871         0.857850
 C         3.508086        -0.805932        -0.129725
 C         2.341633        -0.496991        -1.100775
 O         2.068070        -1.268837        -2.261354
 C         2.392980         1.090418        -1.357218
 C         2.000494         1.125746         0.034467
 O         1.796657         2.256528         0.842214
 H        -0.682228        -0.009884         0.662319
 H        -0.244873        -1.447458        -0.288904
 H         0.050795        -1.263215         1.517791
 H         2.773304         0.107750         1.994732
 H         4.468483        -0.416658        -0.538665
 H         3.503502        -1.899297         0.078961
 H         1.186722        -1.770835        -2.258152
 H         3.453318         1.435860        -1.651628
 H         1.637091         1.387585        -2.130142
 H         2.624516         2.620836         1.152583
