19
Iteration:  4084
 C        -0.046365        -0.547154         0.427781
 C         1.339738        -0.056724         0.170925
 C         2.681373        -0.259255         0.902427
 C         3.414044        -1.075622        -0.158353
 C         2.373970        -0.485405        -1.140473
 O         1.898198        -1.133043        -2.302817
 C         2.674014         1.034851        -1.223534
 C         2.209946         1.108250         0.149990
 O         1.812706         2.247922         0.832393
 H        -0.252422        -1.132081        -0.465840
 H        -0.313633        -1.086152         1.331589
 H        -0.639404         0.371827         0.324174
 H         2.841522        -0.134910         1.915772
 H         4.388568        -0.931168        -0.427180
 H         3.309591        -2.175945        -0.257622
 H         1.121219        -0.631769        -2.618676
 H         3.600216         1.427768        -1.580713
 H         1.924735         1.522974        -1.861329
 H         2.544445         2.870585         0.739565
