19
Iteration:   556charge 0 multiplicity 1
 C        -0.096825        -0.328702         0.337294
 C         1.320034        -0.177963         0.104129
 C         2.582417        -0.200889         0.952604
 C         3.337569        -0.984460        -0.026529
 C         2.361997        -0.497136        -1.108326
 O         2.249029        -1.136488        -2.302626
 C         2.620258         0.922684        -1.278335
 C         2.194111         1.082472         0.122570
 O         1.807122         2.251438         0.808757
 H        -0.457480         0.426088         1.038293
 H        -0.614232        -0.024024        -0.703231
 H        -0.662374        -1.173607         0.737228
 H         2.742915        -0.270912         2.026422
 H         4.406501        -0.739279        -0.163623
 H         3.326263        -2.137592         0.110819
 H         1.697519        -1.982304        -2.235011
 H         3.718555         0.996260        -1.549571
 H         1.864148         1.369241        -1.900961
 H         0.921248         2.479522         0.413664
