19
Iteration:   755charge 0 multiplicity 1
 C        -0.127994        -0.442015         0.444810
 C         1.388450        -0.208300         0.164312
 C         2.613008        -0.275877         0.974228
 C         3.437008        -1.065861        -0.119328
 C         2.457880        -0.474543        -1.111969
 O         2.107063        -1.121519        -2.324443
 C         2.710161         1.025497        -1.211870
 C         2.101996         1.106723         0.143231
 O         1.632032         2.317412         0.676899
 H        -0.542420         0.310191         1.107086
 H        -0.687382        -0.183156        -0.605602
 H        -0.593845        -1.374261         0.711742
 H         2.903043        -0.016496         1.977655
 H         4.463508        -0.828296        -0.493152
 H         3.251696        -2.175603         0.044263
 H         1.847099        -1.996181        -2.087521
 H         3.770742         1.265168        -1.406620
 H         1.999466         1.631989        -1.875930
 H         2.454408         2.817156         0.696475
