19
Iteration:   594
 C        -0.167637        -0.279679         0.286529
 C         1.345917        -0.084803        -0.067924
 C         2.637638        -0.172744         0.811111
 C         3.479227        -0.987815        -0.075201
 C         2.489517        -0.564618        -1.202130
 O         2.053705        -1.428188        -2.246202
 C         2.791682         1.066635        -1.302027
 C         2.138268         1.185957         0.235219
 O         1.583505         2.200769         1.006114
 H        -0.318989         0.510864         1.088178
 H        -0.553212         0.040695        -0.579074
 H        -0.504341        -1.361558         0.584471
 H         2.722151        -0.174795         1.900390
 H         4.531124        -0.673849        -0.103504
 H         3.413443        -1.977165         0.229710
 H         1.541923        -2.123562        -1.742773
 H         3.816838         1.266561        -1.510914
 H         2.178034         1.718712        -1.983339
 H         2.058638         3.018008         0.841421
