19
Iteration:   597
 C        -0.136406        -0.277345         0.272187
 C         1.336172        -0.092340        -0.043731
 C         2.623094        -0.182269         0.824255
 C         3.461596        -0.968619        -0.105606
 C         2.468672        -0.551814        -1.194793
 O         2.054308        -1.416680        -2.220360
 C         2.799235         1.033352        -1.331715
 C         2.137506         1.205408         0.242908
 O         1.574566         2.197607         1.003371
 H        -0.374478         0.391342         1.147049
 H        -0.540190         0.012153        -0.759093
 H        -0.332061        -1.258277         0.530646
 H         2.750023        -0.107675         1.886697
 H         4.535795        -0.703707        -0.148029
 H         3.451908        -2.050502         0.259014
 H         1.580352        -2.091882        -1.800075
 H         3.904809         1.286387        -1.476822
 H         2.162156         1.616326        -1.991864
 H         2.174434         2.976287         0.973402
