19
Iteration:   184
 C        -0.152010        -0.344530         0.259772
 C         1.282535        -0.148662         0.152666
 C         2.497558        -0.204142         0.997254
 C         3.325673        -1.072850         0.072616
 C         2.378678        -0.515348        -1.098521
 O         2.367794        -1.243114        -2.335274
 C         2.525882         1.021406        -1.284148
 C         2.212385         1.123695         0.178477
 O         1.817979         2.333757         0.653651
 H        -0.686621         0.407583         0.833365
 H        -0.672286        -0.140071        -0.743970
 H        -0.336950        -1.451736         0.773223
 H         2.737201        -0.110376         2.061988
 H         4.419128        -0.942924        -0.015195
 H         3.069647        -2.217914         0.261469
 H         1.700027        -2.011089        -2.317496
 H         3.507495         1.360003        -1.768551
 H         1.678567         1.428596        -1.821233
 H         2.434761         2.488037         1.408853
