19
Iteration:  2733
 C         0.065844        -0.571294         0.758285
 C         1.385615        -0.144103         0.101185
 C         2.801805        -0.116663         0.841561
 C         3.551053        -0.877563        -0.346250
 C         2.374274        -0.484966        -1.237036
 O         2.007263        -1.294064        -2.354424
 C         2.463726         1.083726        -1.283304
 C         2.051643         1.154748         0.247213
 O         1.593417         2.240995         0.772186
 H        -0.558146        -1.350556         0.245025
 H         0.445541        -0.879382         1.706412
 H        -0.596438         0.307147         0.908327
 H         2.838262        -0.279724         1.940984
 H         4.460165        -0.430874        -0.748066
 H         3.494999        -1.928834         0.001406
 H         2.678355        -1.847755        -2.709228
 H         3.362340         1.588120        -1.636004
 H         1.703064         1.457567        -1.976737
 H         1.883402         2.259278         1.703827
