19
Iteration:   219
 C        -0.205173        -0.477586         0.082473
 C         1.303148        -0.205690         0.071678
 C         2.471844        -0.094365         0.919810
 C         3.529240        -0.943282        -0.001337
 C         2.359359        -0.563274        -1.054766
 O         1.988122        -1.323930        -2.223143
 C         2.737260         0.987702        -1.241597
 C         2.142121         1.200959         0.119986
 O         1.909627         2.406320         0.806144
 H        -0.679409         0.152731         0.818904
 H        -0.553326        -0.261241        -0.923647
 H        -0.712910        -1.588465         0.220046
 H         2.693825        -0.108182         2.015690
 H         4.523041        -0.518150         0.003675
 H         3.569469        -2.011103         0.435494
 H         2.300794        -2.271690        -2.015787
 H         3.821036         1.119419        -1.299853
 H         2.223132         1.594127        -2.008361
 H         2.054459         2.298692         1.776238
