19
Iteration:  2248charge 0 multiplicity 1
 C        -0.006825        -0.672958         0.558948
 C         1.390025        -0.219025         0.074413
 C         2.805265         0.021162         0.825603
 C         3.696787        -0.829399        -0.284139
 C         2.393561        -0.598518        -1.125926
 O         1.925990        -1.271906        -2.254550
 C         2.577378         1.042259        -1.348059
 C         2.086646         1.110978         0.141857
 O         1.523690         2.315759         0.864510
 H        -0.286816        -0.050275         1.428382
 H        -0.849923        -0.553821        -0.107732
 H         0.057815        -1.589975         1.139998
 H         3.166460         0.059623         1.816422
 H         4.588352        -0.406305        -0.799619
 H         3.908062        -1.783480         0.184270
 H         0.915052        -1.234499        -2.387915
 H         3.593527         1.309584        -1.547947
 H         1.792056         1.322465        -1.948323
 H         2.258211         2.539903         1.455018
