19
Iteration:    62charge 0 multiplicity 1
 C        -0.141358        -0.533018        -0.088435
 C         1.281742        -0.008429         0.076192
 C         2.612274        -0.048766         0.939361
 C         3.383705        -1.031847         0.081347
 C         2.385184        -0.529883        -1.008530
 O         2.058578        -1.425261        -2.106033
 C         2.628891         0.992377        -1.289271
 C         2.162709         1.206987         0.135961
 O         1.912906         2.320999         0.839766
 H        -0.836133        -0.076761         0.702034
 H        -0.573891        -0.098081        -1.069468
 H        -0.194794        -1.684402         0.008617
 H         2.653723         0.138165         2.015251
 H         4.438026        -0.728121        -0.038031
 H         3.337760        -2.128264         0.451541
 H         1.537474        -0.852922        -2.737857
 H         3.627316         1.333399        -1.675285
 H         1.822184         1.277534        -1.979354
 H         2.551769         2.484904         1.543592
