19
Iteration:   924charge 0 multiplicity 1
 C         0.062137        -0.662633         0.450826
 C         1.310536        -0.049145        -0.020257
 C         2.570806        -0.108538         0.852536
 C         3.262437        -0.989913        -0.075643
 C         2.261222        -0.420224        -1.145809
 O         2.101499        -1.208578        -2.255194
 C         2.753629         1.011954        -1.276439
 C         2.233262         1.172340         0.141631
 O         1.740191         2.332200         0.757669
 H        -0.336369        -0.316736         1.458431
 H        -0.768354        -0.639275        -0.171550
 H         0.260852        -1.796799         0.588039
 H         2.579037        -0.293142         1.932182
 H         4.396771        -0.958429        -0.262377
 H         2.828794        -1.906217         0.148477
 H         1.793652        -2.044712        -1.981056
 H         3.810706         1.148063        -1.503136
 H         2.088524         1.536219        -1.917081
 H         2.091355         2.434299         1.644059
