19
Iteration:  4179charge 0 multiplicity 1
 C        -0.058462        -0.362950         0.447238
 C         1.367211        -0.154476         0.080264
 C         2.715791        -0.244746         0.918786
 C         3.385969        -1.038592        -0.177980
 C         2.285339        -0.507069        -1.108760
 O         1.932176        -1.188137        -2.370826
 C         2.600210         1.020207        -1.290003
 C         2.154382         1.066176         0.230399
 O         1.816329         2.269825         0.859109
 H        -0.649804         0.172799        -0.324726
 H        -0.448614        -1.378882         0.504345
 H        -0.131020         0.225493         1.333608
 H         2.886936        -0.251622         1.934694
 H         4.459689        -0.748698        -0.354518
 H         3.384242        -2.098455        -0.085343
 H         2.704642        -1.645731        -2.723937
 H         3.538942         1.420736        -1.603677
 H         1.841819         1.643444        -1.833411
 H         2.680060         2.578606         1.251572
