19
Iteration:  1223
 C        -0.031184        -0.333181         0.361626
 C         1.423333        -0.203752         0.167973
 C         2.695135        -0.199194         0.967773
 C         3.500569        -0.972965        -0.164719
 C         2.361032        -0.560444        -1.133035
 O         2.099775        -1.234346        -2.245098
 C         2.476928         0.928271        -1.330510
 C         2.169232         1.081403         0.233674
 O         1.691885         2.333670         0.703934
 H        -0.416517         0.097800         1.260797
 H        -0.629731         0.144320        -0.472052
 H        -0.343049        -1.459488         0.332868
 H         2.875289        -0.008376         2.017335
 H         4.552579        -0.547934        -0.307966
 H         3.649737        -2.011815         0.169813
 H         1.193863        -1.128377        -2.579550
 H         3.495411         1.252666        -1.567510
 H         1.606665         1.390602        -1.962695
 H         1.874471         2.366058         1.641147
