19
Iteration:  3002
 C         0.189163        -0.785002         0.590410
 C         1.517810        -0.230530         0.132587
 C         2.806212        -0.071492         0.840453
 C         3.545483        -0.893875        -0.277661
 C         2.366931        -0.403936        -1.152221
 O         1.651569        -0.983009        -2.262741
 C         2.638868         1.060190        -1.349926
 C         2.169829         1.161214         0.122093
 O         1.527236         2.126863         0.901715
 H        -0.472950         0.068782         0.701317
 H        -0.273799        -1.389773        -0.230087
 H         0.150570        -1.546436         1.397274
 H         2.946238        -0.165979         1.895681
 H         4.656956        -0.735104        -0.491840
 H         3.712261        -2.020369        -0.079933
 H         1.732547        -1.985181        -2.260925
 H         3.636812         1.453947        -1.506846
 H         1.960271         1.570363        -2.061513
 H         1.920520         2.989297         0.657723
