19
Iteration:  3532
 C         0.001107        -0.625245         0.648151
 C         1.409898        -0.217869         0.196717
 C         2.785963        -0.235124         0.737381
 C         3.542708        -0.915719        -0.389383
 C         2.236784        -0.447502        -1.246511
 O         2.011453        -1.133518        -2.353737
 C         2.245882         1.157387        -1.193750
 C         2.076187         1.090400         0.195972
 O         1.958603         2.193626         0.952618
 H        -0.417952        -0.347973         1.629327
 H        -0.646202        -0.110385        -0.050247
 H        -0.160604        -1.675447         0.398387
 H         3.251857        -0.128561         1.676939
 H         4.471012        -0.217467        -0.584427
 H         3.689888        -2.054966        -0.212016
 H         2.204563        -0.456699        -3.037731
 H         3.112703         1.566615        -1.691634
 H         1.421990         1.548114        -1.787869
 H         1.633031         1.805998         1.806012
