19
Iteration:   832charge 0 multiplicity 1
 C        -0.088978        -0.462668         0.289770
 C         1.310110        -0.179775        -0.022440
 C         2.651474        -0.062327         0.865336
 C         3.388407        -1.014522        -0.185189
 C         2.344515        -0.518153        -1.138665
 O         2.126360        -1.365513        -2.218329
 C         2.680984         1.037826        -1.296370
 C         2.105892         1.199545         0.166623
 O         1.855003         2.343077         1.022598
 H        -0.327822         0.016587         1.222408
 H        -0.813657        -0.259326        -0.611674
 H        -0.149814        -1.508944         0.488763
 H         2.669082         0.087566         1.948093
 H         4.379961        -0.675058        -0.510326
 H         3.122840        -2.093298         0.012519
 H         1.928933        -2.219403        -1.692525
 H         3.653944         1.520709        -1.531819
 H         1.849309         1.378815        -2.024845
 H         0.949413         2.684889         0.797485
