19
Iteration:  4098
 C        -0.084391        -0.395735         0.395250
 C         1.415890        -0.212651         0.083274
 C         2.675988        -0.209995         0.879646
 C         3.438417        -1.058024        -0.190765
 C         2.319299        -0.464889        -1.140395
 O         1.954059        -1.197648        -2.373155
 C         2.600911         1.059804        -1.254691
 C         2.202465         1.072096         0.262405
 O         1.828828         2.265895         0.859716
 H        -0.610167        -1.043845        -0.262847
 H         0.009711        -0.947250         1.310955
 H        -0.782731         0.394227         0.652377
 H         2.857120        -0.265341         1.987410
 H         4.453357        -0.643220        -0.261152
 H         3.262833        -2.083421         0.135979
 H         0.986318        -1.069074        -2.381837
 H         3.677216         1.327434        -1.471572
 H         1.833638         1.507911        -1.879607
 H         2.626059         2.809984         1.073401
