19
Iteration:  4409
 C        -0.093821        -0.472672         0.415079
 C         1.358683        -0.155642         0.049903
 C         2.677113        -0.147307         0.923948
 C         3.438934        -0.996947        -0.154994
 C         2.317707        -0.520054        -1.105906
 O         1.970306        -1.329452        -2.266069
 C         2.666166         0.957341        -1.269591
 C         2.149340         1.148855         0.078674
 O         1.898736         2.377787         0.891096
 H        -0.446843        -1.488291         0.046505
 H        -0.197915        -0.368285         1.521877
 H        -0.732451         0.335861         0.013700
 H         2.646681        -0.130711         2.106479
 H         4.535719        -0.740965        -0.353859
 H         3.358359        -2.068332         0.099005
 H         1.013316        -1.424568        -2.270352
 H         3.707140         1.373971        -1.549572
 H         2.039016         1.425687        -2.024190
 H         1.671680         3.115395         0.278730
