19
Iteration:  4785charge 0 multiplicity 1
 C        -0.031815        -0.332232         0.479037
 C         1.354967        -0.158773         0.008016
 C         2.671556        -0.099493         0.772201
 C         3.396056        -0.979848        -0.145566
 C         2.329235        -0.567870        -1.133503
 O         2.014685        -1.416566        -2.195308
 C         2.657241         0.992920        -1.346320
 C         2.162160         1.110125         0.101682
 O         1.809845         2.308815         0.989254
 H        -0.460223        -0.808238        -0.491475
 H        -0.158293        -0.987741         1.400105
 H        -0.550025         0.648270         0.817824
 H         2.886223        -0.002616         1.840012
 H         4.407933        -0.575630        -0.285875
 H         3.559593        -2.042824         0.214654
 H         1.214288        -1.314730        -2.746804
 H         3.701131         1.379791        -1.501894
 H         2.031683         1.421139        -2.135197
 H         1.367733         2.987584         0.477537
