19
Iteration:   297
 C        -0.139830        -0.528568         0.271268
 C         1.285003        -0.190359         0.016167
 C         2.499037        -0.082190         0.945911
 C         3.291545        -1.062123         0.088502
 C         2.299930        -0.528756        -1.038974
 O         2.140813        -1.203452        -2.291339
 C         2.797816         0.873399        -1.169186
 C         2.150778         1.139699         0.180898
 O         1.850198         2.384830         0.654594
 H        -0.484608        -0.269316         1.298731
 H        -0.668964        -0.021878        -0.449386
 H        -0.183438        -1.679028         0.161933
 H         2.498552        -0.016336         2.035896
 H         4.314156        -0.672760        -0.126345
 H         3.361615        -2.105693         0.400634
 H         2.112426        -0.498948        -2.943094
 H         3.865211         0.910028        -1.211720
 H         2.233336         1.477027        -1.934135
 H         2.540765         3.088334         0.531333
