19
Iteration:  1013
 C        -0.039194        -0.324506         0.279754
 C         1.490587        -0.235446         0.176608
 C         2.700559        -0.184018         1.023175
 C         3.484867        -1.031566        -0.121491
 C         2.413265        -0.542944        -1.114301
 O         2.037472        -1.238699        -2.361700
 C         2.526341         1.091190        -1.218579
 C         2.127660         1.082491         0.254732
 O         1.637707         2.280051         0.743525
 H        -0.273566         0.374665         1.062898
 H        -0.403146         0.127470        -0.591554
 H        -0.490369        -1.358763         0.349657
 H         2.689109        -0.188168         2.131262
 H         4.528782        -1.087721        -0.528539
 H         3.159390        -2.034260         0.139294
 H         2.029317        -2.139710        -2.120424
 H         3.375822         1.684923        -1.492675
 H         1.603537         1.254622        -1.740359
 H         2.189475         3.011504         0.434513
