19
Iteration:  2316charge 0 multiplicity 1
 C        -0.007722        -0.574499         0.606734
 C         1.389691        -0.169566         0.357633
 C         2.770788        -0.026392         0.816891
 C         3.553629        -0.842940        -0.218956
 C         2.374684        -0.574225        -1.246285
 O         2.099968        -1.392977        -2.379880
 C         2.362588         1.045311        -1.456013
 C         1.982713         1.138015         0.126987
 O         1.714624         2.238405         0.981539
 H        -0.718840         0.277663         0.846330
 H        -0.145213        -1.020756        -0.351349
 H        -0.102671        -1.228299         1.439092
 H         3.256141         0.331853         1.778235
 H         4.573929        -0.514436        -0.565236
 H         3.559683        -1.845367         0.196521
 H         1.949056        -0.740070        -3.030566
 H         3.201624         1.704691        -1.629380
 H         1.460000         1.227268        -2.017390
 H         2.470934         2.887769         0.978642
