19
Iteration:  3212
 C         0.088672        -0.823075         0.510234
 C         1.414339        -0.246636         0.155266
 C         2.850963        -0.169234         0.812452
 C         3.493351        -0.835671        -0.304664
 C         2.270130        -0.416444        -1.197311
 O         1.923495        -1.143838        -2.262748
 C         2.348512         1.166106        -1.279792
 C         2.098653         1.088501         0.151437
 O         1.807685         2.229561         1.002972
 H        -0.024122        -1.655729        -0.214711
 H         0.085730        -1.086921         1.588779
 H        -0.800064        -0.099859         0.477055
 H         3.108865        -0.341034         1.840958
 H         4.457416        -0.547139        -0.677935
 H         3.462132        -1.942353        -0.113068
 H         1.849819        -0.699868        -3.120458
 H         3.207322         1.927162        -1.567282
 H         1.450079         1.557495        -1.738041
 H         2.384119         2.920646         0.630835
