19
Iteration:    36charge 0 multiplicity 1
 C        -0.099099        -0.530323        -0.013231
 C         1.310366        -0.150416        -0.044016
 C         2.430708        -0.159679         0.930055
 C         3.326948        -0.859875         0.002698
 C         2.376598        -0.434812        -1.145025
 O         2.094667        -1.514003        -2.060478
 C         2.730454         1.006463        -1.279208
 C         2.107222         1.188961         0.160099
 O         1.953309         2.386420         0.912384
 H        -0.542197         0.200919         0.819840
 H        -0.599389        -0.184285        -0.969734
 H        -0.357857        -1.513734         0.271734
 H         2.502016        -0.024840         2.020414
 H         4.417359        -0.477528         0.098591
 H         3.291992        -1.897455         0.046113
 H         1.126817        -1.653070        -2.012312
 H         3.826513         1.059815        -1.362736
 H         2.224667         1.700543        -2.019539
 H         2.807847         2.671562         1.256161
