19
Iteration:   460
 C         0.000897        -0.631831         0.085257
 C         1.367713        -0.141339         0.003974
 C         2.522300        -0.015556         0.922437
 C         3.252011        -1.058818         0.047855
 C         2.362592        -0.521494        -1.089695
 O         1.937404        -1.273104        -2.163133
 C         2.805024         1.010862        -1.265301
 C         2.098550         1.194912         0.098356
 O         1.875020         2.350569         0.917609
 H        -0.380049        -0.381694         1.067130
 H        -0.650750        -0.073786        -0.539699
 H        -0.291552        -1.741798         0.099536
 H         2.423571         0.188608         1.990579
 H         4.322929        -0.915790        -0.159146
 H         3.123608        -2.115355         0.288339
 H         2.794521        -1.499996        -2.679668
 H         3.849917         1.321161        -1.172157
 H         2.140849         1.447334        -2.030393
 H         2.411980         3.062689         0.548492
