19
Iteration:  1715charge 0 multiplicity 1
 C         0.050582        -0.757490         0.460749
 C         1.326089        -0.179141         0.167157
 C         2.777067         0.052254         0.814683
 C         3.551495        -0.806923        -0.178324
 C         2.320977        -0.486852        -1.018837
 O         2.007418        -1.289553        -2.215232
 C         2.453652         1.053436        -1.390837
 C         2.014329         1.146330         0.026376
 O         1.847396         2.237452         0.889413
 H        -0.399891        -0.197871         1.387456
 H        -0.741892        -0.507570        -0.260329
 H         0.137652        -1.844597         0.685681
 H         3.147005         0.226914         1.837882
 H         4.477924        -0.415604        -0.705185
 H         3.547455        -1.852769        -0.085812
 H         1.438919        -1.946157        -1.816331
 H         3.483755         1.471926        -1.537001
 H         1.622472         1.261323        -2.137888
 H         1.344637         2.949399         0.388636
