19
Iteration:  4930charge 0 multiplicity 1
 C        -0.025882        -0.568578         0.421787
 C         1.314219        -0.071987         0.106804
 C         2.671206        -0.107973         0.878232
 C         3.331308        -0.983068        -0.113462
 C         2.303224        -0.506537        -1.127317
 O         2.050129        -1.365420        -2.175985
 C         2.612799         0.985315        -1.279757
 C         2.160128         1.146944         0.144669
 O         1.913182         2.365368         0.770416
 H        -0.657808         0.291995         0.304183
 H        -0.154373        -1.485329        -0.148735
 H        -0.033280        -0.667578         1.498540
 H         2.852883        -0.037193         2.004515
 H         4.345905        -0.969862        -0.425005
 H         2.902682        -2.006295         0.167139
 H         1.252375        -1.111367        -2.672217
 H         3.569428         1.380750        -1.483511
 H         1.894022         1.393872        -2.066905
 H         1.879596         3.049106         0.057722
