19
Iteration:  3904charge 0 multiplicity 1
 C         0.027069        -0.458226         0.490520
 C         1.442330        -0.115738         0.083783
 C         2.794169        -0.237644         0.861390
 C         3.459907        -0.995150        -0.282651
 C         2.286224        -0.417348        -1.187459
 O         1.794940        -1.075979        -2.346413
 C         2.648273         1.067993        -1.210376
 C         2.195326         1.084947         0.159151
 O         1.663387         2.109856         0.919523
 H         0.028693        -0.677911         1.580239
 H        -0.690892         0.378246         0.469350
 H        -0.300211        -1.247706        -0.200934
 H         3.145080        -0.186523         1.862544
 H         4.491335        -0.904816        -0.620896
 H         3.208371        -2.063826        -0.149991
 H         2.177017        -1.959140        -2.310940
 H         3.680112         1.312310        -1.209242
 H         2.051812         1.590022        -1.934603
 H         2.281168         2.645142         1.478053
