19
Iteration:   856charge 0 multiplicity 1
 C        -0.052842        -0.585846         0.375837
 C         1.300589        -0.131056         0.138974
 C         2.570291        -0.138469         0.927500
 C         3.440671        -0.912645        -0.037603
 C         2.320033        -0.469743        -1.153663
 O         2.021830        -1.226904        -2.336608
 C         2.680996         1.034789        -1.277577
 C         2.172202         1.126010         0.201280
 O         1.846916         2.267279         0.785181
 H        -0.658221        -0.294258         1.260020
 H        -0.515715        -0.268230        -0.584756
 H        -0.081592        -1.716131         0.259716
 H         2.541955        -0.163170         2.039621
 H         4.525531        -0.565533        -0.078238
 H         3.227810        -1.927786         0.229414
 H         1.908848        -2.148750        -1.983858
 H         3.727977         1.298613        -1.530193
 H         1.994393         1.624261        -1.904768
 H         1.907704         3.012684         0.130604
