19
Iteration:  1042
 C        -0.099827        -0.428480         0.373785
 C         1.366196        -0.028711         0.071799
 C         2.623280        -0.157432         0.887258
 C         3.515074        -0.998324        -0.064840
 C         2.369419        -0.472052        -1.104375
 O         2.024412        -1.213430        -2.254899
 C         2.764566         0.968943        -1.379265
 C         2.182301         1.165465         0.069990
 O         1.599867         2.118247         0.902831
 H        -0.490523         0.026160         1.362572
 H        -0.712460         0.076174        -0.427876
 H        -0.327233        -1.494321         0.433801
 H         2.691629         0.170010         1.909251
 H         4.533531        -0.689177        -0.396243
 H         3.289394        -2.036345         0.222037
 H         1.868244        -2.133186        -1.919176
 H         3.898775         1.152967        -1.488196
 H         2.178588         1.437450        -2.177234
 H         2.084659         2.987915         0.971982
