19
Iteration:  2634
 C        -0.007610        -0.840068         0.390784
 C         1.363718        -0.112215         0.136403
 C         2.757643        -0.110613         0.856678
 C         3.507300        -0.798088        -0.295649
 C         2.251643        -0.489165        -1.110955
 O         2.091903        -1.448497        -2.110637
 C         2.332364         1.179608        -1.309083
 C         2.147613         1.203105         0.194907
 O         1.844376         2.356967         0.858575
 H        -0.935236        -0.286578        -0.012346
 H        -0.039504        -1.799715        -0.097225
 H        -0.045661        -1.282864         1.381185
 H         2.957329        -0.192891         1.958247
 H         4.447899        -0.273932        -0.549325
 H         3.560657        -1.877505        -0.069476
 H         1.399379        -1.175700        -2.700727
 H         3.144313         1.817831        -1.633442
 H         1.533930         1.711820        -1.844747
 H         2.428173         2.999926         0.367283
