19
Iteration:  2734charge 0 multiplicity 1
 C         0.063649        -0.566458         0.758352
 C         1.386983        -0.149707         0.103818
 C         2.803480        -0.110153         0.846621
 C         3.543571        -0.873534        -0.347643
 C         2.365055        -0.484857        -1.239679
 O         2.013335        -1.291130        -2.359938
 C         2.466738         1.074373        -1.291248
 C         2.046366         1.159228         0.250340
 O         1.600900         2.240889         0.779061
 H        -0.536479        -1.336814         0.274814
 H         0.414601        -0.891311         1.701515
 H        -0.590386         0.269350         0.863667
 H         2.835130        -0.280449         1.921781
 H         4.451264        -0.431897        -0.738934
 H         3.529701        -1.910998         0.036582
 H         2.698244        -1.869278        -2.720963
 H         3.324237         1.574009        -1.637554
 H         1.685950         1.420617        -1.968340
 H         1.900016         2.247179         1.694815
