19
Iteration:  3160charge 0 multiplicity 1
 C         0.193234        -0.659494         0.594198
 C         1.517548        -0.186636         0.109164
 C         2.908641        -0.141073         0.803255
 C         3.558258        -0.918608        -0.409171
 C         2.330226        -0.380758        -1.179527
 O         1.712634        -1.105680        -2.241860
 C         2.575311         1.174284        -1.253994
 C         2.126020         1.061960         0.152269
 O         1.484349         2.072759         0.988936
 H        -0.451589        -0.879488        -0.267833
 H         0.194268        -1.474119         1.270672
 H        -0.190358         0.194352         1.139869
 H         3.053845        -0.008220         1.861409
 H         4.608928        -0.614521        -0.656367
 H         3.248450        -1.969114        -0.337954
 H         2.377846        -1.641527        -2.749256
 H         3.543649         1.502167        -1.468412
 H         1.910985         1.719836        -1.889414
 H         1.683447         2.868412         0.469149
