19
Iteration:  1109charge 0 multiplicity 1
 C        -0.137195        -0.690167         0.375227
 C         1.260773        -0.062741         0.259231
 C         2.560916        -0.265041         0.967649
 C         3.372230        -1.092545        -0.063578
 C         2.339772        -0.494374        -1.101215
 O         2.201013        -1.062507        -2.332082
 C         2.510859         0.997922        -1.282666
 C         2.065384         1.186163         0.138777
 O         2.024082         2.468474         0.643407
 H        -0.729506        -0.181673         1.217371
 H        -0.582031        -0.489456        -0.576961
 H        -0.011967        -1.802165         0.461849
 H         2.884344        -0.069541         2.008484
 H         4.485615        -0.910755        -0.122637
 H         3.289385        -2.217729         0.067001
 H         2.218473        -1.999381        -2.183516
 H         3.563624         1.116212        -1.663489
 H         1.775029         1.179847        -2.042337
 H         1.501146         2.520194         1.436197
