19
Iteration:  1772
 C         0.118797        -0.794574         0.584751
 C         1.397436        -0.179559         0.219655
 C         2.735797        -0.101332         0.794192
 C         3.477155        -0.869337        -0.227659
 C         2.359523        -0.398741        -1.149039
 O         2.018261        -1.361385        -2.106333
 C         2.386377         1.111723        -1.315643
 C         2.062193         1.138250         0.118916
 O         1.693079         2.371723         0.682081
 H        -0.217965        -0.401539         1.601836
 H        -0.608463        -0.657549        -0.189459
 H         0.155821        -1.922222         0.503672
 H         2.992970        -0.226179         1.827908
 H         4.515289        -0.520975        -0.430894
 H         3.485450        -1.973068        -0.185262
 H         1.747103        -0.876525        -2.962030
 H         3.419687         1.480789        -1.511956
 H         1.809764         1.841669        -1.961685
 H         2.522374         2.782020         0.909092
