19
Iteration:  4604charge 0 multiplicity 1
 C        -0.144746        -0.413956         0.431546
 C         1.337061        -0.150440         0.188420
 C         2.642063        -0.109988         0.863136
 C         3.425486        -0.927003        -0.072396
 C         2.346044        -0.537027        -1.132961
 O         2.111201        -1.354939        -2.321812
 C         2.479807         0.949332        -1.373193
 C         2.151942         1.173853         0.177911
 O         2.022901         2.330722         0.806776
 H        -0.827052         0.395811         0.193265
 H        -0.255771        -1.320455        -0.196365
 H        -0.326526        -0.642580         1.475414
 H         2.710055        -0.161213         2.009394
 H         4.521613        -0.610346        -0.037082
 H         3.324110        -1.969962         0.155954
 H         1.454728        -2.071017        -2.243355
 H         3.383985         1.421540        -1.883476
 H         1.575456         1.370433        -1.981090
 H         1.121091         2.729198         0.866913
