19
Iteration:   669
 C        -0.114683        -0.662089         0.282787
 C         1.262368        -0.195528         0.113055
 C         2.501907        -0.215682         0.963878
 C         3.301873        -0.964204        -0.061388
 C         2.268301        -0.514558        -1.080839
 O         2.165277        -1.105140        -2.305141
 C         2.635036         0.979211        -1.179890
 C         2.148701         1.134899         0.216723
 O         2.052021         2.483909         0.644403
 H        -0.526869        -0.390551         1.246412
 H        -0.599119        -0.371204        -0.584504
 H         0.131645        -1.762326         0.302629
 H         2.510857        -0.317277         2.044156
 H         4.353842        -0.702032        -0.312469
 H         3.262970        -2.013255         0.141254
 H         2.239696        -2.016303        -2.009891
 H         3.637479         1.165796        -1.472577
 H         1.922424         1.492462        -1.874856
 H         1.218373         2.696546         1.144286
