19
Iteration:  3163charge 0 multiplicity 1
 C         0.169646        -0.654831         0.580125
 C         1.514489        -0.184649         0.093790
 C         2.928535        -0.141056         0.801934
 C         3.540186        -0.915029        -0.391083
 C         2.350615        -0.370860        -1.174650
 O         1.697659        -1.105287        -2.256194
 C         2.562388         1.158908        -1.254627
 C         2.115303         1.081561         0.175518
 O         1.494467         2.060196         0.986517
 H        -0.424160        -0.941499        -0.293984
 H         0.300649        -1.426230         1.384207
 H        -0.243866         0.133529         1.192938
 H         3.130818        -0.008051         1.883090
 H         4.673435        -0.565714        -0.623809
 H         3.421389        -2.045332        -0.225922
 H         2.327281        -1.614375        -2.822559
 H         3.608998         1.427948        -1.480705
 H         1.924804         1.780859        -1.991440
 H         1.671790         2.859446         0.439448
