19
Iteration:  3294
 C         0.156163        -0.768502         0.630198
 C         1.481706        -0.256952         0.121125
 C         2.782627        -0.151679         0.835711
 C         3.556762        -0.914047        -0.382978
 C         2.336738        -0.401010        -1.226686
 O         1.794462        -0.992934        -2.372643
 C         2.522278         1.181669        -1.274988
 C         2.128173         1.096388         0.220975
 O         1.685759         2.204115         0.901459
 H         0.131931        -1.441155         1.536852
 H        -0.376241         0.001847         1.153855
 H        -0.257659        -1.199778        -0.258979
 H         2.772308        -0.435145         1.899456
 H         4.455593        -0.432655        -0.851828
 H         3.650819        -1.972639        -0.195307
 H         1.278292        -1.824285        -2.138832
 H         3.565862         1.507230        -1.473257
 H         1.681467         1.598114        -1.952254
 H         1.498118         1.973489         1.839737
