19
Iteration:   750
 C        -0.157019        -0.468992         0.437139
 C         1.391273        -0.150434         0.179682
 C         2.590822        -0.238136         0.950563
 C         3.413927        -1.058055        -0.100288
 C         2.461253        -0.473833        -1.131610
 O         2.104184        -1.133705        -2.347171
 C         2.716488         1.030912        -1.229510
 C         2.178264         1.122361         0.126050
 O         1.633512         2.269711         0.704391
 H        -0.617502         0.236976         1.170845
 H        -0.700495        -0.240122        -0.399207
 H        -0.523891        -1.487801         0.755602
 H         2.872696        -0.045001         1.994740
 H         4.501672        -0.960673        -0.246528
 H         3.224639        -2.119926         0.040134
 H         1.772890        -2.037179        -2.073887
 H         3.786547         1.327914        -1.345038
 H         2.056941         1.584716        -1.847844
 H         2.342260         2.972060         0.556308
