19
Iteration:   140
 C        -0.091853        -0.278538         0.541921
 C         1.272936        -0.106405        -0.049295
 C         2.466539        -0.093293         0.872395
 C         3.262805        -1.078722         0.006067
 C         2.361858        -0.517793        -1.133769
 O         2.267656        -1.225624        -2.306589
 C         2.909559         0.984837        -1.230848
 C         2.115978         1.115837        -0.012674
 O         1.651595         2.161004         0.752685
 H        -0.383810         0.307868         1.402364
 H        -0.937375        -0.031479        -0.203337
 H        -0.319676        -1.447657         0.752653
 H         2.338940         0.094281         1.919200
 H         4.339516        -0.917701        -0.002793
 H         2.977215        -2.165051         0.352507
 H         2.450812        -2.198289        -2.066155
 H         3.986178         1.138642        -0.930056
 H         2.662126         1.595184        -2.077021
 H         2.261257         2.916578         0.885757
