19
Iteration:  1341
 C         0.005662        -0.812212         0.384165
 C         1.364590        -0.119536         0.175939
 C         2.796385        -0.097954         0.971368
 C         3.388977        -0.989186        -0.170429
 C         2.285665        -0.466140        -1.059729
 O         1.842942        -1.153201        -2.250822
 C         2.724819         0.974855        -1.235160
 C         2.148008         1.158271         0.167047
 O         1.736240         2.466821         0.663853
 H        -0.682744        -0.322558         1.163888
 H        -0.657581        -0.804325        -0.490034
 H         0.258435        -1.926605         0.704939
 H         2.810151        -0.331329         2.057948
 H         4.492387        -0.760185        -0.500659
 H         3.295830        -1.986595         0.141576
 H         2.364711        -1.919723        -2.199636
 H         3.797861         1.337115        -1.336480
 H         1.985340         1.327599        -1.958490
 H         2.148330         3.177222         0.122152
