19
Iteration:  4484charge 0 multiplicity 1
 C        -0.045674        -0.618783         0.348873
 C         1.296545        -0.018186         0.112264
 C         2.662126        -0.075214         0.931332
 C         3.336263        -0.962729        -0.082976
 C         2.310069        -0.482543        -1.100871
 O         1.892620        -1.373758        -2.200769
 C         2.651737         0.963229        -1.295266
 C         2.163493         1.140196         0.128447
 O         2.039332         2.357170         0.809301
 H        -0.471802        -1.113656        -0.573577
 H        -0.011470        -1.242051         1.298192
 H        -0.723596         0.250425         0.487685
 H         2.911807        -0.133722         2.084661
 H         4.369528        -0.647400        -0.373877
 H         3.354785        -1.987653         0.060014
 H         1.959575        -0.803083        -3.004910
 H         3.667789         1.130361        -1.638015
 H         2.053076         1.438685        -1.982821
 H         1.149467         2.590761         0.525307
