19
Iteration:  1112charge 0 multiplicity 1
 C        -0.139584        -0.674918         0.363306
 C         1.255534        -0.087284         0.284582
 C         2.563361        -0.245310         0.958601
 C         3.396813        -1.099922        -0.073871
 C         2.326681        -0.507981        -1.074110
 O         2.197588        -1.054046        -2.333787
 C         2.514597         0.977189        -1.267088
 C         2.051826         1.207781         0.129837
 O         2.041568         2.458310         0.641065
 H        -0.805574        -0.315333         1.143703
 H        -0.628041        -0.479320        -0.548905
 H         0.032791        -1.801994         0.552748
 H         2.871427        -0.033944         2.000218
 H         4.504598        -0.858898        -0.125892
 H         3.146759        -2.111812        -0.017866
 H         2.291885        -2.016065        -2.264885
 H         3.530306         1.111778        -1.662560
 H         1.859522         1.280970        -2.150842
 H         1.409079         2.512345         1.408852
