19
Iteration:  4147
 C        -0.119889        -0.299573         0.497377
 C         1.305332        -0.099218         0.044270
 C         2.710711        -0.160593         0.839232
 C         3.416302        -1.017647        -0.183059
 C         2.338261        -0.502417        -1.155042
 O         2.029296        -1.262864        -2.374150
 C         2.580183         1.080157        -1.383428
 C         2.200077         1.059936         0.140676
 O         1.827104         2.182908         1.013012
 H        -0.803137        -0.319116        -0.398756
 H        -0.409715        -1.065774         1.246130
 H        -0.394010         0.648195         0.971520
 H         2.857142        -0.217486         1.865839
 H         4.462390        -0.728177        -0.482801
 H         3.218877        -2.091220        -0.085064
 H         2.244824        -2.171486        -2.065487
 H         3.550572         1.484366        -1.698614
 H         1.689604         1.584652        -1.849337
 H         2.369574         1.998098         1.778831
