19
Iteration:  3273
 C         0.059136        -0.872708         0.610087
 C         1.425020        -0.208836         0.039340
 C         2.738362        -0.123780         0.791438
 C         3.566413        -0.807520        -0.296313
 C         2.298438        -0.392395        -1.259805
 O         1.895567        -1.063637        -2.374654
 C         2.437517         1.106948        -1.314843
 C         2.101938         1.090599         0.142484
 O         1.852970         2.214673         0.995687
 H         0.198451        -1.717735         1.271293
 H        -0.266305        -0.242214         1.438172
 H        -0.719388        -1.088069        -0.075235
 H         2.944254         0.204190         1.801068
 H         4.639901        -0.412107        -0.424158
 H         3.369068        -1.848982        -0.098436
 H         1.081175        -1.449932        -2.070270
 H         3.321837         1.638497        -1.341883
 H         1.598761         1.715916        -1.767589
 H         1.996820         1.853388         1.876598
