19
Iteration:  1069charge 0 multiplicity 1
 C        -0.034078        -0.535652         0.389846
 C         1.310978        -0.139341        -0.021574
 C         2.589269        -0.086169         0.848397
 C         3.396710        -0.967341        -0.044884
 C         2.370377        -0.475266        -1.165837
 O         2.086803        -1.278181        -2.295198
 C         2.729181         1.001349        -1.277739
 C         2.076214         1.135493         0.118869
 O         1.749972         2.319543         0.854789
 H        -0.253534        -0.057882         1.313833
 H        -0.747191        -0.067519        -0.265184
 H        -0.321025        -1.589849         0.581626
 H         2.570492        -0.016471         1.950265
 H         4.425307        -0.695947        -0.311823
 H         3.235467        -1.958066         0.324129
 H         1.676862        -2.100861        -1.906938
 H         3.766714         1.254350        -1.286153
 H         2.276717         1.653791        -2.047520
 H         2.376412         2.294930         1.627648
