19
Iteration:  3972
 C        -0.096926        -0.423765         0.444483
 C         1.379910        -0.229318         0.208541
 C         2.707060        -0.209375         0.799199
 C         3.373977        -0.947037        -0.264979
 C         2.330609        -0.498777        -1.199065
 O         2.086814        -1.179008        -2.402274
 C         2.471255         1.035444        -1.287295
 C         2.204855         1.101573         0.260615
 O         1.884260         2.228195         0.975932
 H        -0.366732        -0.934654         1.378458
 H        -0.650578         0.434773         0.837514
 H        -0.633109        -0.744441        -0.411032
 H         3.005053        -0.226968         1.920870
 H         4.382531        -0.867663        -0.610698
 H         3.286149        -2.043800        -0.215553
 H         1.102993        -1.260228        -2.505648
 H         3.371378         1.465951        -1.664257
 H         1.624961         1.401739        -1.899145
 H         2.561031         2.610776         1.562614
