19
Iteration:   383
 C        -0.238646        -0.215593         0.270873
 C         1.263626        -0.094442         0.068356
 C         2.562648        -0.146747         0.947850
 C         3.417819        -1.045853         0.044837
 C         2.431049        -0.530998        -1.119438
 O         2.192065        -1.410398        -2.221329
 C         2.781915         1.033353        -1.330916
 C         2.164456         1.175983         0.055219
 O         1.780830         2.172201         0.892993
 H        -0.617252         0.432919         1.031432
 H        -0.786721        -0.099636        -0.645158
 H        -0.628357        -1.260174         0.551936
 H         2.861919         0.097691         1.966004
 H         4.454700        -0.779918        -0.173081
 H         3.338408        -2.181523         0.146511
 H         2.153492        -0.829233        -2.965002
 H         3.826845         1.391534        -1.527888
 H         2.086285         1.337247        -2.165287
 H         0.820937         2.153929         0.912539
