19
Iteration:  1157charge 0 multiplicity 1
 C        -0.038147        -0.604039         0.372871
 C         1.344294        -0.083236         0.016823
 C         2.511550        -0.146185         0.912494
 C         3.374051        -0.986758        -0.027115
 C         2.402801        -0.510297        -1.190751
 O         1.986351        -1.248804        -2.251773
 C         2.702806         1.049510        -1.350799
 C         2.196413         1.133952         0.123627
 O         1.866777         2.356367         0.932281
 H        -0.399019        -0.072016         1.225768
 H        -0.786266        -0.438785        -0.446433
 H         0.280278        -1.672777         0.616233
 H         2.314334        -0.220299         1.969118
 H         4.467193        -0.714429        -0.252746
 H         3.246679        -2.053560         0.084980
 H         1.943902        -2.198772        -1.976617
 H         3.727245         1.461623        -1.509162
 H         1.936292         1.573464        -2.070395
 H         1.359209         2.956014         0.299751
