19
Iteration:  3584charge 0 multiplicity 1
 C         0.085639        -0.722125         0.524247
 C         1.435523        -0.115165         0.119375
 C         2.780314        -0.218591         0.816417
 C         3.469679        -1.001915        -0.343465
 C         2.304111        -0.366138        -1.219194
 O         1.851789        -1.049736        -2.338688
 C         2.474066         1.200780        -1.261651
 C         2.078230         1.091989         0.209005
 O         1.860802         2.211041         0.934135
 H         0.286931        -1.058182         1.535733
 H        -0.863501        -0.132914         0.529270
 H        -0.113301        -1.701017        -0.002004
 H         2.874320        -0.175861         1.879897
 H         4.494995        -0.670914        -0.592357
 H         3.495059        -2.127016        -0.233414
 H         1.643562        -1.917369        -1.983820
 H         3.439869         1.676122        -1.663997
 H         1.693495         1.620354        -1.929851
 H         1.774915         2.064847         1.899185
