19
Iteration:  1932
 C         0.155539        -0.800103         0.472336
 C         1.421012        -0.144927         0.138503
 C         2.917107         0.047369         0.855159
 C         3.489127        -0.884934        -0.296602
 C         2.288881        -0.495359        -1.147046
 O         2.000048        -1.414828        -2.162328
 C         2.384356         0.995013        -1.341137
 C         2.099895         1.208798         0.228182
 O         1.619375         2.420845         0.811861
 H        -0.351226        -0.328628         1.326837
 H        -0.565906        -0.546964        -0.322857
 H         0.101415        -1.836041         0.438779
 H         3.047115        -0.034738         1.933727
 H         4.520539        -0.723635        -0.659882
 H         3.328122        -1.873535         0.023420
 H         1.215237        -1.140419        -2.690676
 H         3.390748         1.355653        -1.635531
 H         1.724452         1.590193        -1.921477
 H         2.265241         2.901642         1.317278
