19
Iteration:  3687
 C        -0.001431        -0.613361         0.563810
 C         1.368631        -0.256811         0.134402
 C         2.777640        -0.120029         0.799174
 C         3.390222        -0.918411        -0.333119
 C         2.285843        -0.454335        -1.243583
 O         1.977537        -1.101560        -2.467050
 C         2.404603         1.128648        -1.308998
 C         2.133029         1.118295         0.262099
 O         1.916508         2.158360         1.135498
 H        -0.416738        -0.023280         1.439687
 H        -0.525900        -0.344226        -0.340621
 H        -0.189420        -1.660900         0.727852
 H         3.034906        -0.102855         1.906834
 H         4.406747        -0.763012        -0.704093
 H         3.334330        -2.050257        -0.180487
 H         2.122660        -2.051961        -2.181501
 H         3.420399         1.437122        -1.656778
 H         1.571533         1.688830        -1.785398
 H         2.293268         2.926800         0.708201
