19
Iteration:   819
 C        -0.068905        -0.407382         0.315813
 C         1.356257        -0.079892         0.025240
 C         2.603692        -0.067015         0.798493
 C         3.422505        -0.986862        -0.146443
 C         2.389158        -0.487868        -1.115345
 O         2.149174        -1.326266        -2.162786
 C         2.567347         1.039365        -1.314108
 C         2.067766         1.157238         0.089110
 O         1.865850         2.221162         0.967176
 H        -0.517991         0.223410         1.063760
 H        -0.648013        -0.057396        -0.633967
 H        -0.308584        -1.405087         0.503288
 H         2.637443        -0.096167         1.864019
 H         4.452833        -1.026759        -0.384300
 H         3.287456        -2.064885         0.237943
 H         2.026751        -2.216778        -1.896408
 H         3.615135         1.315841        -1.623208
 H         1.850633         1.424561        -2.125377
 H         0.982652         2.150197         1.403877
