19
Iteration:  1390charge 0 multiplicity 1
 C         0.027305        -0.603537         0.460548
 C         1.357688        -0.159530         0.023750
 C         2.596487        -0.030351         0.826833
 C         3.525053        -0.959475        -0.111114
 C         2.453189        -0.564364        -1.132723
 O         2.038549        -1.308283        -2.172800
 C         2.449147         1.125555        -1.417381
 C         2.120941         1.170248         0.063452
 O         1.793671         2.337744         0.861942
 H        -0.331399         0.043188         1.227667
 H        -0.713101        -0.316698        -0.292824
 H        -0.077789        -1.653669         0.690770
 H         2.539817        -0.050118         1.894144
 H         4.586841        -0.784824        -0.123183
 H         3.266903        -2.040864         0.176038
 H         1.368880        -2.003817        -1.860891
 H         3.398024         1.415008        -1.810469
 H         1.539507         1.454649        -1.991805
 H         2.414548         2.300661         1.607355
