19
Iteration:  1288
 C        -0.015517        -0.600740         0.515175
 C         1.285628        -0.135473         0.019220
 C         2.628069        -0.002540         0.843381
 C         3.373673        -0.945671        -0.085766
 C         2.334500        -0.474150        -1.162426
 O         2.004713        -1.315656        -2.245607
 C         2.606735         0.954001        -1.386961
 C         2.212860         1.195379         0.076679
 O         1.836228         2.298386         0.957016
 H        -0.194437        -0.240848         1.485391
 H        -0.763319        -0.523747        -0.185130
 H        -0.010647        -1.741917         0.630768
 H         2.787211         0.204347         1.907355
 H         4.474598        -0.795626        -0.312665
 H         3.272365        -1.927638         0.303837
 H         2.803076        -1.231642        -2.738804
 H         3.670101         1.035157        -1.615437
 H         2.048400         1.474558        -2.207005
 H         1.004094         2.706578         0.632690
