19
Iteration:  3131charge 0 multiplicity 1
 C         0.114871        -0.652965         0.599808
 C         1.468955        -0.177629         0.146531
 C         2.916400        -0.154624         0.807706
 C         3.527291        -0.881561        -0.370894
 C         2.300063        -0.421331        -1.228591
 O         1.872079        -1.178371        -2.348759
 C         2.384804         1.150862        -1.274484
 C         2.191433         1.088093         0.221456
 O         1.554135         2.178739         0.970741
 H        -0.761657        -0.351581        -0.009702
 H         0.037288        -1.779572         0.703251
 H        -0.041350        -0.116429         1.546755
 H         3.158134        -0.193074         1.881466
 H         4.580865        -0.549224        -0.599900
 H         3.335087        -1.955448        -0.251074
 H         2.574934        -1.770123        -2.596120
 H         3.353924         1.520370        -1.735317
 H         1.432230         1.603302        -1.766583
 H         2.310772         2.747219         1.167872
