19
Iteration:  4188
 C        -0.155060        -0.382918         0.449131
 C         1.364631        -0.119856         0.139210
 C         2.734031        -0.259944         0.927440
 C         3.461951        -1.104090        -0.188365
 C         2.290778        -0.466983        -1.201317
 O         1.897450        -1.177955        -2.325939
 C         2.651256         1.061906        -1.232148
 C         2.168309         1.108480         0.227903
 O         1.824923         2.243823         0.807328
 H        -0.778553         0.193515        -0.214573
 H        -0.325888        -1.429824         0.323176
 H        -0.401628        -0.124535         1.467732
 H         2.793428        -0.290727         1.984166
 H         4.509738        -0.738734        -0.397999
 H         3.391982        -2.140773        -0.030892
 H         2.721198        -1.437954        -2.758073
 H         3.646767         1.287511        -1.639478
 H         1.802982         1.279765        -1.808908
 H         2.541683         2.878891         1.021819
