19
Iteration:  4155charge 0 multiplicity 1
 C        -0.098823        -0.274915         0.503501
 C         1.338267        -0.229817         0.053010
 C         2.674567        -0.131730         0.830475
 C         3.390839        -1.011034        -0.228648
 C         2.316538        -0.449377        -1.162269
 O         2.006941        -1.259200        -2.371740
 C         2.595356         1.037747        -1.337648
 C         2.187483         1.149485         0.214854
 O         1.850381         2.163409         0.976163
 H        -0.714230        -0.295723        -0.382144
 H        -0.392994        -1.188601         1.012067
 H        -0.306665         0.623435         1.059734
 H         2.613076        -0.144756         1.935272
 H         4.515180        -0.901651        -0.287742
 H         3.296936        -2.045535        -0.001517
 H         2.430213        -2.129615        -2.266486
 H         3.453402         1.505249        -1.879641
 H         1.827138         1.411956        -2.018950
 H         2.368192         2.184577         1.785471
