19
Iteration:  4579
 C        -0.116491        -0.393553         0.518532
 C         1.335790        -0.172090         0.110365
 C         2.614377        -0.097031         0.834597
 C         3.415638        -1.004963        -0.179301
 C         2.308380        -0.513299        -1.151219
 O         2.153130        -1.351283        -2.254365
 C         2.542391         1.005810        -1.314047
 C         2.144519         1.204505         0.137945
 O         1.962803         2.299488         0.810886
 H        -0.625457         0.450094         0.169763
 H        -0.486639        -1.324597         0.153074
 H        -0.219858        -0.345293         1.597000
 H         2.429452         0.082548         1.987429
 H         4.486666        -0.838825        -0.461547
 H         3.305736        -2.113363         0.215366
 H         1.640350        -2.153239        -1.990516
 H         3.511979         1.327820        -1.722591
 H         1.822731         1.490356        -2.150734
 H         1.022331         2.472114         0.923034
