19
Iteration:   188charge 0 multiplicity 1
 C        -0.151319        -0.361911         0.222116
 C         1.278896        -0.133889         0.110674
 C         2.519619        -0.195043         1.036938
 C         3.321584        -1.049626         0.045737
 C         2.379262        -0.506672        -1.073878
 O         2.338861        -1.235397        -2.312406
 C         2.529410         0.992957        -1.261390
 C         2.170980         1.093201         0.165319
 O         1.859990         2.317811         0.643781
 H        -0.629477         0.397459         0.857658
 H        -0.668764        -0.261686        -0.690993
 H        -0.443672        -1.350699         0.651010
 H         2.891614        -0.105588         2.087773
 H         4.378474        -0.773123         0.035884
 H         3.139572        -2.092258         0.201488
 H         1.751063        -1.971421        -2.250882
 H         3.433964         1.394616        -1.639090
 H         1.673724         1.443055        -1.824346
 H         2.382244         2.505270         1.426097
