19
Iteration:  4475charge 0 multiplicity 1
 C        -0.064341        -0.578474         0.314974
 C         1.310471        -0.021696         0.110228
 C         2.596473        -0.081908         0.934929
 C         3.402033        -1.008438        -0.105419
 C         2.269577        -0.575297        -1.103852
 O         1.943528        -1.379120        -2.192860
 C         2.615283         0.978647        -1.302437
 C         2.149339         1.202871         0.124799
 O         2.082829         2.356550         0.829207
 H        -0.224967        -1.360370        -0.500435
 H        -0.013341        -1.229695         1.239985
 H        -0.867913         0.123839         0.604809
 H         2.799645         0.398466         1.949101
 H         4.456954        -0.692624        -0.307418
 H         3.316916        -2.105871        -0.126927
 H         1.642775        -0.808808        -2.949789
 H         3.650520         1.382072        -1.511660
 H         1.922874         1.447624        -1.941872
 H         1.217815         2.783634         0.802567
