19
Iteration:  3219
 C         0.047389        -0.853916         0.532978
 C         1.396825        -0.216387         0.167560
 C         2.842664        -0.166657         0.785110
 C         3.444623        -0.845575        -0.370188
 C         2.277943        -0.399517        -1.158639
 O         1.984933        -1.220444        -2.298950
 C         2.336967         1.230907        -1.276131
 C         2.123654         1.140412         0.233805
 O         1.834596         2.241668         0.981237
 H        -0.017890        -1.728995        -0.115574
 H        -0.010494        -1.210655         1.599739
 H        -0.768227        -0.211006         0.207798
 H         2.949837        -0.278669         1.862638
 H         4.588224        -0.703705        -0.632761
 H         3.507377        -1.942982        -0.204528
 H         1.696276        -0.649222        -3.002405
 H         3.120933         1.881219        -1.666414
 H         1.287192         1.572904        -1.530199
 H         2.552403         2.829257         0.710613
