19
Iteration:   724
 C         0.063362        -0.562300         0.411930
 C         1.331345        -0.044547        -0.118621
 C         2.592616        -0.018170         0.924439
 C         3.246116        -1.056166         0.005839
 C         2.338611        -0.528848        -1.107729
 O         2.135762        -1.163037        -2.356206
 C         2.757405         0.953617        -1.302374
 C         2.121709         1.160905         0.115174
 O         1.738373         2.246481         0.954141
 H        -0.208669        -0.015536         1.334176
 H        -0.817255        -0.323938        -0.293086
 H         0.021712        -1.666234         0.657387
 H         2.446657        -0.001879         2.001960
 H         4.349892        -1.116236        -0.309856
 H         3.034305        -2.055943         0.376376
 H         1.719129        -2.070874        -2.178426
 H         3.787209         1.111667        -1.538749
 H         2.053295         1.496365        -1.995533
 H         1.877794         3.031706         0.344881
