19
Iteration:  3803
 C         0.078800        -0.691656         0.430582
 C         1.397139        -0.180475         0.118771
 C         2.708572        -0.141651         0.850737
 C         3.408060        -0.972559        -0.264514
 C         2.314284        -0.447031        -1.187217
 O         1.751374        -1.112845        -2.400864
 C         2.505238         1.189264        -1.249070
 C         2.143702         1.160507         0.223805
 O         1.924033         2.223760         0.999389
 H        -0.524187         0.090569         0.941335
 H        -0.419810        -1.126773        -0.484587
 H         0.110667        -1.531426         1.244329
 H         2.622740        -0.350373         1.959059
 H         4.614466        -0.856553        -0.411755
 H         3.351864        -2.064628        -0.175470
 H         2.574190        -1.546434        -2.750450
 H         3.508866         1.317941        -1.631721
 H         1.749891         1.533512        -1.928429
 H         2.583099         2.345318         1.693748
