19
Iteration:  1643charge 0 multiplicity 1
 C         0.001453        -0.576192         0.646576
 C         1.450542        -0.277271         0.182860
 C         2.845853         0.032571         0.861962
 C         3.486477        -1.007678        -0.155214
 C         2.403380        -0.553878        -1.173149
 O         1.963649        -1.286018        -2.280615
 C         2.531849         1.167394        -1.351117
 C         2.054477         1.165015         0.020863
 O         1.652869         2.274853         0.727031
 H        -0.082121        -0.022105         1.520148
 H        -0.743908         0.004974         0.157080
 H        -0.362487        -1.576809         0.975429
 H         2.936565         0.094128         1.943892
 H         4.472918        -0.706459        -0.380116
 H         3.321713        -2.041432         0.324117
 H         2.639654        -1.227238        -2.923226
 H         3.531006         1.478089        -1.428989
 H         1.770554         1.349639        -2.079517
 H         1.022137         1.996240         1.454679
