19
Iteration:  2504
 C         0.112767        -0.545918         0.598294
 C         1.437116        -0.194677         0.076566
 C         2.664375        -0.020411         0.868935
 C         3.551223        -0.859730        -0.125660
 C         2.408781        -0.574690        -1.123795
 O         1.983072        -1.343681        -2.252414
 C         2.433396         1.069585        -1.394660
 C         2.069322         1.161242         0.103796
 O         1.634039         2.203976         0.861200
 H         0.059572        -0.509402         1.738003
 H        -0.625006         0.036527         0.037043
 H        -0.096412        -1.610579         0.470784
 H         2.700924         0.121064         1.918461
 H         4.552803        -0.527415        -0.512287
 H         3.617126        -1.960949         0.121722
 H         2.332547        -0.928733        -3.093139
 H         3.463101         1.500340        -1.715482
 H         1.585347         1.261755        -2.136408
 H         2.063062         2.988678         0.506629
