19
Iteration:  3264charge 0 multiplicity 1
 C         0.093634        -0.881263         0.603065
 C         1.326437        -0.227928         0.103171
 C         2.726838        -0.046962         0.789691
 C         3.511734        -0.831813        -0.309702
 C         2.321890        -0.393289        -1.228420
 O         1.949424        -1.116299        -2.376711
 C         2.387951         1.169556        -1.293074
 C         2.069009         1.145719         0.167846
 O         1.912739         2.202123         1.001625
 H         0.265691        -1.907210         0.907769
 H        -0.263502        -0.229193         1.446733
 H        -0.654853        -0.872602        -0.196775
 H         2.809711        -0.066084         1.865788
 H         4.536843        -0.543135        -0.747413
 H         3.680279        -1.917526        -0.173085
 H         1.086569        -1.505105        -2.372666
 H         3.365387         1.538776        -1.566374
 H         1.575228         1.541075        -1.929227
 H         2.215655         1.960463         1.881031
