19
Iteration:  3898charge 0 multiplicity 1
 C         0.056020        -0.485827         0.486620
 C         1.446588        -0.144429         0.128946
 C         2.759166        -0.217136         0.859642
 C         3.400796        -1.001669        -0.288117
 C         2.304331        -0.425660        -1.204232
 O         1.808074        -1.058180        -2.346938
 C         2.651296         1.106016        -1.220659
 C         2.197177         1.107186         0.178308
 O         1.672614         2.122942         0.910270
 H        -0.064297        -0.759272         1.539639
 H        -0.713503         0.295729         0.353925
 H        -0.290388        -1.302038        -0.149343
 H         3.174413        -0.206488         1.918222
 H         4.568074        -0.914644        -0.467025
 H         3.280307        -2.118415        -0.166519
 H         1.975724        -2.016807        -2.156265
 H         3.757905         1.338847        -1.425478
 H         2.000351         1.577055        -2.020828
 H         2.480847         2.386635         1.380864
