19
Iteration:  1201
 C        -0.115946        -0.417025         0.375575
 C         1.434846        -0.205602         0.131112
 C         2.779063        -0.016782         0.916482
 C         3.434897        -1.002796        -0.128745
 C         2.387408        -0.508575        -1.088803
 O         2.021049        -1.335889        -2.326317
 C         2.698505         1.058295        -1.301620
 C         2.111050         1.144219         0.158740
 O         1.631484         2.219500         0.825797
 H        -0.534926         0.140869         1.182486
 H        -0.511689         0.125977        -0.535903
 H        -0.465139        -1.529075         0.291359
 H         2.907683        -0.103519         1.980478
 H         4.514237        -0.779653        -0.435243
 H         3.362120        -1.988127         0.345996
 H         1.078379        -1.548635        -2.126464
 H         3.756067         1.331777        -1.478044
 H         1.901452         1.475449        -2.039798
 H         2.452927         2.681500         1.179309
