19
Iteration:   823
 C        -0.048715        -0.407355         0.315744
 C         1.344427        -0.106430        -0.012166
 C         2.595691        -0.039798         0.779980
 C         3.413539        -1.018793        -0.189973
 C         2.368201        -0.487235        -1.105004
 O         2.153810        -1.334553        -2.155906
 C         2.614106         1.036023        -1.300633
 C         2.065762         1.142350         0.123351
 O         1.862583         2.259196         0.991555
 H        -0.585426         0.172236         1.089713
 H        -0.657539        -0.119589        -0.583592
 H        -0.304952        -1.498595         0.464282
 H         2.602262         0.022620         1.880876
 H         4.527509        -0.955748        -0.469571
 H         3.239666        -2.021482         0.180470
 H         1.979914        -2.281300        -1.830427
 H         3.595510         1.387562        -1.598329
 H         1.834904         1.293821        -2.041980
 H         0.943699         2.356997         1.316022
