19
Iteration:  1448charge 0 multiplicity 1
 C        -0.031923        -0.355090         0.560029
 C         1.421440        -0.261970         0.115757
 C         2.774147        -0.119543         0.931515
 C         3.507136        -0.921639        -0.192596
 C         2.429208        -0.551877        -1.103386
 O         2.126176        -1.300052        -2.274060
 C         2.435711         1.010854        -1.327055
 C         2.054896         1.058594         0.130100
 O         1.627726         2.283203         0.695248
 H        -0.042583         0.077845         1.574757
 H        -0.663954         0.087238        -0.245873
 H        -0.427109        -1.288779         0.757522
 H         3.051742        -0.099352         2.010407
 H         4.546021        -0.653551        -0.329850
 H         3.537408        -2.021504         0.014901
 H         1.247516        -1.006444        -2.545643
 H         3.402889         1.466517        -1.696909
 H         1.637553         1.353187        -1.970273
 H         2.221402         2.604068         1.422746
