19
Iteration:  4554
 C        -0.087855        -0.413268         0.515679
 C         1.334192        -0.125746         0.066930
 C         2.719822        -0.134364         0.979740
 C         3.350594        -0.999126        -0.120350
 C         2.338798        -0.506573        -1.192247
 O         1.979838        -1.278385        -2.291453
 C         2.686242         0.954813        -1.360690
 C         2.163745         1.172851         0.147806
 O         1.824531         2.284909         0.824023
 H        -0.783844         0.264733        -0.030607
 H        -0.297043        -1.483986         0.546086
 H        -0.068643        -0.053084         1.575399
 H         3.032452         0.177124         1.897404
 H         4.376769        -0.819563        -0.409976
 H         3.340549        -2.100178         0.231881
 H         2.263084        -2.222637        -2.187250
 H         3.677584         1.244449        -1.713973
 H         2.122834         1.434942        -2.133199
 H         1.059822         2.642834         0.371481
