19
Iteration:  3364charge 0 multiplicity 1
 C         0.088762        -0.720821         0.594242
 C         1.364683        -0.271132         0.008087
 C         2.773670        -0.176296         0.813690
 C         3.511023        -0.789371        -0.373891
 C         2.249962        -0.444420        -1.251561
 O         1.865063        -1.181255        -2.333983
 C         2.412612         1.165886        -1.352493
 C         2.142385         1.116634         0.202690
 O         1.897029         2.242535         1.138141
 H         0.182018        -0.638314         1.628381
 H        -0.606541         0.076132         0.505127
 H        -0.121947        -1.699521         0.224232
 H         2.789428        -0.533108         1.882140
 H         4.486540        -0.202007        -0.600484
 H         3.805590        -1.848531        -0.136278
 H         2.306357        -1.020410        -3.205960
 H         3.309492         1.598341        -1.654187
 H         1.550642         1.458554        -1.850213
 H         1.245493         1.835881         1.763463
