19
Iteration:  1845
 C         0.066275        -0.640328         0.716122
 C         1.429505        -0.165265         0.127515
 C         2.793525        -0.043841         0.792759
 C         3.493327        -0.858189        -0.261599
 C         2.313325        -0.452346        -1.197246
 O         2.048851        -1.335737        -2.170793
 C         2.448146         1.073986        -1.335604
 C         2.169741         1.166986         0.127644
 O         1.561171         2.193417         0.744826
 H        -0.147128        -0.034447         1.689082
 H        -0.696186        -0.458997        -0.107335
 H         0.005344        -1.700810         0.997258
 H         2.979240        -0.146776         1.839313
 H         4.595281        -0.817598        -0.527568
 H         3.301840        -1.881507        -0.023690
 H         2.264986        -0.888239        -2.983498
 H         3.344031         1.574839        -1.795268
 H         1.569553         1.311124        -1.925086
 H         2.109349         2.911804         1.127559
