19
Iteration:  1174
 C         0.043975        -0.497307         0.351903
 C         1.379308        -0.032435        -0.040784
 C         2.581109        -0.173892         0.862393
 C         3.375705        -1.010780        -0.100980
 C         2.384260        -0.407206        -1.073470
 O         1.995691        -1.319501        -2.206281
 C         2.738688         1.057487        -1.347947
 C         2.120542         1.226417         0.101527
 O         1.726039         2.189200         0.934191
 H        -0.260601         0.006323         1.337254
 H        -0.714455        -0.370388        -0.415762
 H        -0.052768        -1.550062         0.491349
 H         2.692553        -0.144621         1.969468
 H         4.436556        -0.807020        -0.146860
 H         3.388394        -2.130292         0.054576
 H         1.464640        -1.974669        -1.732970
 H         3.788440         1.239450        -1.600975
 H         1.999470         1.380766        -1.995950
 H         1.886427         3.060566         0.473261
