19
Iteration:  2076
 C         0.082499        -0.592189         0.590623
 C         1.485762        -0.214092         0.166726
 C         2.742473         0.002500         0.812161
 C         3.617113        -0.790524        -0.281409
 C         2.335130        -0.499710        -1.144958
 O         1.985098        -1.343321        -2.228501
 C         2.476460         1.021382        -1.356339
 C         2.051413         1.151266         0.014009
 O         1.587822         2.195143         0.889285
 H        -0.410643         0.243272         1.191255
 H        -0.540861        -0.847776        -0.263146
 H         0.012378        -1.496434         1.159578
 H         2.890656         0.043921         1.900384
 H         4.635321        -0.387105        -0.397396
 H         3.774942        -1.811810        -0.037536
 H         1.105241        -1.061517        -2.380162
 H         3.462535         1.412664        -1.684862
 H         1.774147         1.445161        -2.098527
 H         2.293931         2.450258         1.535299
