19
Iteration:  4336charge 0 multiplicity 1
 C        -0.115175        -0.406641         0.479135
 C         1.332255        -0.160668         0.141303
 C         2.687249        -0.087956         0.933795
 C         3.385196        -1.075014        -0.174825
 C         2.314811        -0.471062        -1.138966
 O         2.012593        -1.357968        -2.295107
 C         2.647773         1.052004        -1.312747
 C         2.173035         1.136954         0.173452
 O         1.923054         2.287111         0.791825
 H        -0.077295        -0.926568         1.419651
 H        -0.644879         0.554364         0.548831
 H        -0.701476        -0.933274        -0.286387
 H         2.726254         0.002469         2.068566
 H         4.419769        -0.899100        -0.454969
 H         3.092050        -2.152419         0.118343
 H         2.088385        -0.882264        -3.138673
 H         3.636999         1.312094        -1.632125
 H         1.958448         1.639689        -2.006201
 H         1.099463         2.132825         1.313332
