19
Iteration:  4145
 C        -0.130520        -0.299995         0.491289
 C         1.311652        -0.070184         0.048835
 C         2.713250        -0.174450         0.842793
 C         3.419723        -1.020390        -0.170118
 C         2.336821        -0.518212        -1.181520
 O         2.038799        -1.259758        -2.362739
 C         2.567580         1.093102        -1.384253
 C         2.199957         1.045059         0.114817
 O         1.822945         2.186622         1.019248
 H        -0.801751        -0.345026        -0.367609
 H        -0.353341        -1.029810         1.267422
 H        -0.417968         0.630260         0.953442
 H         2.942870        -0.243661         1.901569
 H         4.447161        -0.689523        -0.550110
 H         3.213988        -2.055061        -0.080970
 H         2.171418        -2.166953        -2.049076
 H         3.604243         1.422752        -1.618143
 H         1.672558         1.576131        -1.792780
 H         2.371227         1.982796         1.793390
