19
Iteration:  2543charge 0 multiplicity 1
 C         0.176312        -0.543089         0.675747
 C         1.427839        -0.196035         0.166736
 C         2.806319        -0.069106         0.891036
 C         3.535933        -0.995003        -0.345355
 C         2.311046        -0.482061        -1.136322
 O         1.920949        -1.232193        -2.287283
 C         2.629132         1.087427        -1.165478
 C         2.086758         1.111083         0.088736
 O         1.438097         2.255591         0.633415
 H        -0.286152         0.224522         1.295252
 H        -0.557309        -0.779646        -0.108311
 H         0.184868        -1.549394         1.171667
 H         2.925154        -0.162402         1.959374
 H         4.462791        -0.579572        -0.704000
 H         3.423055        -1.940696         0.106121
 H         2.681836        -1.892543        -2.338736
 H         3.544092         1.504328        -1.406181
 H         1.958126         1.577337        -1.797210
 H         1.881538         2.836304         1.281464
