19
Iteration:  2236
 C         0.072081        -0.705854         0.626913
 C         1.490669        -0.258190         0.128158
 C         2.812780         0.025753         0.771645
 C         3.537275        -0.864931        -0.225841
 C         2.355765        -0.532792        -1.123141
 O         1.974019        -1.238514        -2.249963
 C         2.548842         1.004473        -1.347892
 C         2.023336         1.231827         0.057382
 O         1.558481         2.246778         0.848691
 H        -0.081228        -0.094496         1.466231
 H        -0.683675        -0.428451        -0.122323
 H        -0.066667        -1.794063         0.676572
 H         2.846034         0.047303         1.839282
 H         4.498982        -0.463114        -0.576099
 H         3.705404        -1.892826         0.146890
 H         1.049525        -1.115265        -2.206579
 H         3.539203         1.336773        -1.663631
 H         1.970426         1.416714        -2.121312
 H         2.266658         2.619986         1.441216
