19
Iteration:  4071charge 0 multiplicity 1
 C        -0.064050        -0.599547         0.357966
 C         1.438023        -0.177565         0.159807
 C         2.728760        -0.214541         0.932136
 C         3.329308        -1.108762        -0.220828
 C         2.315187        -0.407170        -1.126367
 O         1.859765        -1.118857        -2.222483
 C         2.716184         1.045969        -1.323372
 C         2.192953         1.149332         0.170589
 O         1.822889         2.299406         0.856975
 H        -0.349106        -1.488439        -0.303299
 H        -0.121239        -1.083516         1.385019
 H        -0.870781         0.151789         0.284242
 H         2.804800        -0.382228         2.008014
 H         4.388561        -0.989089        -0.402110
 H         3.118196        -2.098044         0.206446
 H         1.598064        -0.450117        -2.892772
 H         3.759777         1.176922        -1.440987
 H         2.040565         1.571520        -2.039049
 H         2.489471         3.022013         0.759828
