19
Iteration:   985
 C        -0.218610        -0.368794         0.304332
 C         1.379131        -0.184258         0.204404
 C         2.710512        -0.268972         0.970423
 C         3.443438        -0.893820        -0.166107
 C         2.318004        -0.543677        -1.025982
 O         2.178610        -1.144188        -2.274997
 C         2.519147         0.946532        -1.320199
 C         2.168416         1.090099         0.184863
 O         1.746570         2.279003         0.768798
 H        -0.535823         0.302018         1.100910
 H        -0.737741        -0.131338        -0.714065
 H        -0.386462        -1.402397         0.527311
 H         2.965018        -0.207203         2.029915
 H         4.440481        -0.692107        -0.483636
 H         3.511420        -2.039522        -0.017037
 H         2.211102        -2.088935        -2.178215
 H         3.469994         1.316618        -1.821755
 H         1.596892         1.164788        -1.950436
 H         2.481429         2.869609         0.900882
