19
Iteration:  2830charge 0 multiplicity 1
 C         0.115490        -0.845355         0.457157
 C         1.365609        -0.133225         0.116911
 C         2.875657        -0.022191         0.817663
 C         3.601132        -0.889183        -0.267673
 C         2.336165        -0.426308        -1.136631
 O         1.759134        -1.115381        -2.247561
 C         2.553386         1.061126        -1.254110
 C         2.119896         1.163239         0.118223
 O         1.650130         2.175691         0.904175
 H         0.351601        -1.578286         1.337974
 H        -0.613419        -0.114194         0.847832
 H        -0.191735        -1.459328        -0.481715
 H         3.053488         0.095749         1.868049
 H         4.596892        -0.570230        -0.584464
 H         3.441268        -1.914259         0.137524
 H         1.428643        -1.766530        -1.654596
 H         3.623916         1.477573        -1.505745
 H         1.906488         1.554215        -2.007953
 H         1.895273         2.988555         0.429738
