19
Iteration:  3920
 C        -0.028365        -0.379764         0.530339
 C         1.415762        -0.206467         0.059827
 C         2.815325        -0.161536         0.806078
 C         3.455214        -1.036896        -0.338809
 C         2.324431        -0.484854        -1.205791
 O         1.805652        -1.134285        -2.303617
 C         2.719486         1.081634        -1.274169
 C         2.229685         1.081504         0.266175
 O         1.589362         2.135867         1.003619
 H        -0.102794        -0.709615         1.580000
 H        -0.574893         0.581071         0.546908
 H        -0.657598        -1.038398        -0.079952
 H         2.770188        -0.488396         1.888862
 H         4.572785        -0.708127        -0.689863
 H         3.538954        -2.142343        -0.116283
 H         2.557265        -1.445358        -2.844284
 H         3.763759         1.277626        -1.688635
 H         1.961866         1.679548        -1.879792
 H         2.315623         2.812044         1.074969
