19
Iteration:  1821
 C         0.221052        -0.590737         0.685218
 C         1.486898        -0.238329         0.115610
 C         2.759761        -0.018080         0.871184
 C         3.594965        -0.946060        -0.080242
 C         2.330088        -0.473694        -1.218071
 O         1.923992        -1.269184        -2.262872
 C         2.483853         1.063459        -1.430628
 C         1.979183         1.110737         0.075678
 O         1.546504         2.268035         0.750626
 H         0.220841        -0.154428         1.676081
 H        -0.688804        -0.358506         0.044500
 H         0.168149        -1.739809         0.784096
 H         2.941492         0.076670         1.963203
 H         4.696288        -0.831430        -0.170453
 H         3.413515        -2.034954         0.174798
 H         1.929388        -0.692727        -3.007547
 H         3.397289         1.601846        -1.808438
 H         1.679754         1.352037        -2.147904
 H         2.091592         2.479737         1.566183
