19
Iteration:  3800
 C         0.097459        -0.671927         0.424859
 C         1.419718        -0.221097         0.130945
 C         2.721838        -0.146391         0.843773
 C         3.422978        -0.984400        -0.240961
 C         2.303639        -0.410113        -1.219118
 O         1.740106        -1.099019        -2.405140
 C         2.530986         1.157979        -1.272653
 C         2.129066         1.156006         0.230849
 O         1.897726         2.224040         1.004439
 H        -0.465540         0.084832         0.951436
 H        -0.411522        -1.110640        -0.450903
 H         0.061951        -1.410265         1.276234
 H         2.686064        -0.307498         1.942713
 H         4.448555        -0.840653        -0.362179
 H         3.294072        -2.029545        -0.140196
 H         2.538915        -1.631110        -2.644623
 H         3.542232         1.345719        -1.657748
 H         1.711210         1.596035        -1.895452
 H         2.529464         2.323408         1.727154
