19
Iteration:  1687charge 0 multiplicity 1
 C         0.098535        -0.636223         0.573712
 C         1.435982        -0.253903         0.158408
 C         2.679839        -0.088698         0.888326
 C         3.578341        -0.814128        -0.190215
 C         2.354708        -0.474147        -1.144731
 O         1.871056        -1.341042        -2.289443
 C         2.546209         1.111579        -1.351187
 C         2.173890         1.154016         0.155899
 O         1.702242         2.374452         0.753258
 H        -0.307611        -0.193726         1.455783
 H        -0.483248        -0.378804        -0.297692
 H         0.015964        -1.735768         0.822903
 H         2.678202        -0.296230         1.941826
 H         4.533249        -0.522060        -0.566630
 H         3.520343        -1.973456        -0.090216
 H         2.321737        -2.116163        -2.016889
 H         3.467027         1.572421        -1.659852
 H         1.622074         1.419164        -1.832323
 H         0.710492         2.287757         0.846054
