19
Iteration:  1234charge 0 multiplicity 1
 C        -0.069402        -0.381918         0.410912
 C         1.398223        -0.276665         0.102081
 C         2.653278        -0.175726         0.961745
 C         3.469991        -0.944778        -0.149835
 C         2.359255        -0.482851        -1.073027
 O         2.134152        -1.304136        -2.221427
 C         2.484977         1.020405        -1.301358
 C         2.206390         1.077637         0.196092
 O         1.777756         2.320625         0.676229
 H        -0.307375         0.143311         1.311290
 H        -0.523086         0.192793        -0.419735
 H        -0.458449        -1.472822         0.424701
 H         2.708692        -0.452176         2.010445
 H         4.421339        -0.439497        -0.504188
 H         3.518236        -2.041010         0.058997
 H         1.462813        -0.784132        -2.608294
 H         3.250666         1.416694        -1.994104
 H         1.474859         1.370283        -1.802574
 H         1.502525         2.333365         1.597447
