19
Iteration:  2463
 C        -0.042378        -0.770276         0.402296
 C         1.410727        -0.187582         0.333487
 C         2.770877        -0.122769         0.881673
 C         3.410890        -0.807871        -0.292215
 C         2.302382        -0.408782        -1.148216
 O         2.167726        -1.417607        -2.100955
 C         2.393603         1.068796        -1.421165
 C         2.114144         1.178635         0.115640
 O         1.763973         2.386452         0.810743
 H        -0.324030        -1.098582         1.364139
 H        -0.693344         0.095825         0.207559
 H        -0.059650        -1.525655        -0.376109
 H         2.964131         0.058255         1.956184
 H         4.390863        -0.471373        -0.572971
 H         3.562018        -1.891250        -0.226011
 H         1.233990        -1.533293        -2.396485
 H         3.321325         1.491667        -1.638916
 H         1.534053         1.526586        -1.884669
 H         2.504374         3.011884         0.872030
