19
Iteration:  1571charge 0 multiplicity 1
 C         0.009719        -0.794099         0.429939
 C         1.343837        -0.220505         0.243318
 C         2.792726         0.075048         0.876120
 C         3.411333        -0.936070        -0.117416
 C         2.399473        -0.509594        -1.170885
 O         2.078401        -1.312637        -2.251563
 C         2.408135         1.039786        -1.325874
 C         1.996900         1.143890         0.137649
 O         1.910024         2.454646         0.699648
 H        -0.633050        -0.362425         1.325000
 H        -0.599002        -0.527207        -0.506539
 H         0.045146        -1.859615         0.518582
 H         2.927154        -0.020808         1.945810
 H         4.430664        -0.781056        -0.607706
 H         3.218269        -1.931602         0.213326
 H         1.142356        -1.317600        -2.221003
 H         3.316791         1.707496        -1.399141
 H         1.526322         1.410132        -1.855917
 H         2.136273         2.405675         1.647113
