19
Iteration:  1656charge 0 multiplicity 1
 C         0.044251        -0.534137         0.656351
 C         1.454887        -0.233607         0.179930
 C         2.814847        -0.009404         0.810869
 C         3.488867        -0.971559        -0.228066
 C         2.350297        -0.482992        -1.079484
 O         1.981740        -1.201715        -2.220087
 C         2.538029         0.997328        -1.351072
 C         2.112990         1.126983         0.115111
 O         1.590130         2.296773         0.698595
 H        -0.152580        -0.105337         1.614935
 H        -0.586862        -0.248876        -0.214186
 H        -0.173904        -1.573652         0.739803
 H         3.053006        -0.024844         1.857994
 H         4.499107        -1.033347        -0.584550
 H         3.209658        -2.031850        -0.041693
 H         2.836573        -1.479862        -2.702704
 H         3.457676         1.442280        -1.720306
 H         1.826048         1.335686        -2.040898
 H         0.886896         2.066093         1.301356
