19
Iteration:  1915
 C         0.114261        -0.711276         0.455127
 C         1.478451        -0.170617         0.299478
 C         2.781186        -0.081205         0.868913
 C         3.508957        -0.834086        -0.212746
 C         2.325176        -0.432084        -1.082014
 O         1.991400        -1.373245        -2.159285
 C         2.354144         1.075336        -1.417744
 C         2.106623         1.172130         0.065913
 O         1.667386         2.302864         0.807692
 H        -0.473420        -0.396149         1.393725
 H        -0.401506        -0.602264        -0.522838
 H         0.255864        -1.840130         0.689484
 H         3.143037         0.026412         1.915583
 H         4.539145        -0.515376        -0.514610
 H         3.611965        -1.957507        -0.049201
 H         1.463607        -0.902361        -2.819066
 H         3.136578         1.598946        -2.019079
 H         1.355586         1.218576        -1.950089
 H         2.458197         2.845719         0.898865
