19
Iteration:  1095
 C        -0.061227        -0.636637         0.371434
 C         1.299571        -0.157481         0.100296
 C         2.571983        -0.206821         0.974589
 C         3.284353        -1.041821        -0.019632
 C         2.400027        -0.474009        -1.127880
 O         2.174034        -1.165405        -2.340430
 C         2.552646         1.036173        -1.290734
 C         2.163664         1.114962         0.192720
 O         1.944493         2.473774         0.662662
 H        -0.544073        -0.230373         1.304531
 H        -0.869558        -0.362424        -0.420291
 H        -0.117346        -1.680097         0.591403
 H         2.585618        -0.281650         2.047982
 H         4.286076        -0.729367        -0.253792
 H         3.135742        -2.196720         0.199848
 H         1.890137        -2.090872        -2.148761
 H         3.351707         1.698186        -1.645315
 H         1.704198         1.508009        -1.792529
 H         1.823864         2.402906         1.649595
