19
Iteration:    71
 C        -0.151300        -0.504173        -0.046210
 C         1.299229        -0.059932         0.111648
 C         2.639630        -0.068418         0.957914
 C         3.361561        -1.043447         0.125159
 C         2.430877        -0.530251        -1.055700
 O         2.052871        -1.339946        -2.096935
 C         2.590102         0.949070        -1.286188
 C         2.207676         1.132837         0.137922
 O         1.850881         2.370308         0.775402
 H        -0.907730        -0.140749         0.822555
 H        -0.687878        -0.147849        -1.021006
 H        -0.237893        -1.607823        -0.113072
 H         3.128967         0.193297         1.914868
 H         4.524428        -0.997144         0.092979
 H         2.979447        -2.063005         0.188276
 H         1.984152        -0.823183        -2.945597
 H         3.633298         1.215938        -1.611527
 H         1.816964         1.472091        -1.932599
 H         2.434717         2.473337         1.536597
