19
Iteration:  1627
 C         0.077362        -0.521256         0.672295
 C         1.367569        -0.206706         0.053102
 C         2.688596        -0.048887         0.816272
 C         3.556702        -0.872100        -0.082053
 C         2.368754        -0.519477        -1.173776
 O         1.972341        -1.358838        -2.282965
 C         2.538095         1.029791        -1.355498
 C         2.057797         1.107704         0.119733
 O         1.692835         2.300135         0.767344
 H        -0.078618        -0.045717         1.745769
 H        -0.781094        -0.241285        -0.017167
 H         0.095083        -1.615691         0.595800
 H         2.966242         0.137865         1.867419
 H         4.654213        -0.652408        -0.367122
 H         3.420762        -1.920751         0.092116
 H         2.369717        -1.069101        -3.131381
 H         3.531016         1.550869        -1.618595
 H         1.796942         1.593150        -2.023717
 H         1.179266         2.138992         1.611682
