19
Iteration:   717
 C         0.097190        -0.630150         0.385045
 C         1.290002        -0.059957        -0.078823
 C         2.497940        -0.001921         0.874669
 C         3.235415        -1.066671        -0.040414
 C         2.365094        -0.571114        -1.137964
 O         2.139077        -1.172450        -2.333080
 C         2.733506         0.931310        -1.280002
 C         2.114521         1.221919         0.088733
 O         1.805694         2.299776         0.989055
 H         0.089240         0.008969         1.303204
 H        -0.677598        -0.262972        -0.233657
 H         0.101003        -1.697472         0.675388
 H         2.410298         0.158258         1.966506
 H         4.307520        -1.114647        -0.069980
 H         2.906133        -2.086120         0.216269
 H         1.779396        -2.107438        -2.166734
 H         3.812035         1.259622        -1.319600
 H         2.197437         1.325365        -2.114166
 H         1.617480         3.175052         0.619708
