19
Iteration:  1418
 C        -0.053746        -0.432789         0.541580
 C         1.345800        -0.138364         0.106048
 C         2.688828        -0.031642         0.921147
 C         3.415183        -0.785285        -0.277018
 C         2.340586        -0.555290        -1.181568
 O         2.174980        -1.468057        -2.249227
 C         2.536026         1.084404        -1.365159
 C         2.129786         1.098851         0.131533
 O         1.737252         2.257304         0.828820
 H        -0.369372         0.109428         1.477316
 H        -0.755505        -0.052716        -0.217063
 H        -0.276913        -1.550412         0.688787
 H         2.925461        -0.228064         1.994372
 H         4.471233        -0.406185        -0.512216
 H         3.473759        -1.806348        -0.106984
 H         1.344131        -1.954589        -2.148501
 H         3.616215         1.147007        -1.618066
 H         1.811360         1.665553        -1.977774
 H         1.999293         2.138732         1.731176
