19
Iteration:  2302
 C         0.002773        -0.579865         0.537407
 C         1.402790        -0.103584         0.242122
 C         2.862844        -0.030516         0.795705
 C         3.517420        -0.910514        -0.285406
 C         2.421646        -0.464525        -1.227671
 O         2.116571        -1.390142        -2.216597
 C         2.279025         1.071240        -1.357081
 C         2.117041         1.153159         0.134783
 O         1.639230         2.217712         0.953028
 H        -0.649810         0.209448         0.743572
 H        -0.539676        -1.064897        -0.277818
 H        -0.007638        -1.316634         1.351663
 H         3.069997        -0.141315         1.849565
 H         4.564394        -0.694871        -0.573495
 H         3.457478        -1.973312        -0.032642
 H         1.591910        -1.024717        -3.009424
 H         3.145019         1.487641        -1.958949
 H         1.335510         1.365234        -1.812248
 H         2.359541         2.852621         0.978635
