19
Iteration:  3211charge 0 multiplicity 1
 C         0.096104        -0.815953         0.504040
 C         1.421144        -0.248690         0.153833
 C         2.844933        -0.163872         0.819343
 C         3.502047        -0.840845        -0.297381
 C         2.271427        -0.414694        -1.205605
 O         1.912247        -1.134040        -2.260192
 C         2.349870         1.156051        -1.279023
 C         2.093537         1.078118         0.148181
 O         1.804201         2.226972         1.004256
 H        -0.045950        -1.651034        -0.205952
 H         0.100380        -1.091836         1.602900
 H        -0.788854        -0.088931         0.507971
 H         3.134962        -0.333685         1.837994
 H         4.482532        -0.487002        -0.705060
 H         3.438478        -1.956882        -0.108353
 H         1.879130        -0.703923        -3.105088
 H         3.231585         1.896268        -1.569232
 H         1.465673         1.554540        -1.798689
 H         2.345107         2.940524         0.639148
