19
Iteration:  4923charge 0 multiplicity 1
 C        -0.021721        -0.548835         0.433563
 C         1.346261        -0.077564         0.060032
 C         2.686907        -0.005165         0.904642
 C         3.264680        -1.056712        -0.125816
 C         2.295103        -0.512200        -1.144574
 O         2.064572        -1.424210        -2.196104
 C         2.641751         1.000953        -1.314209
 C         2.100557         1.194214         0.160164
 O         1.936108         2.360674         0.806934
 H        -0.853612         0.209567         0.189656
 H        -0.318878        -1.567608        -0.008953
 H         0.084109        -0.971316         1.542401
 H         2.739759        -0.240831         1.945915
 H         4.331058        -0.777702        -0.409774
 H         3.194326        -2.035683         0.277924
 H         1.267374        -0.967678        -2.557681
 H         3.689231         1.364126        -1.622713
 H         1.891014         1.553179        -1.846917
 H         1.870954         3.081259         0.146622
