19
Iteration:  4532
 C         3.228227         1.533770         0.253942
 C         2.374654         0.660386         1.040743
 C         1.780776         0.824420         2.520058
 O         0.507490         0.291081         2.287247
 C         1.072496        -0.162126         0.845421
 C        -0.021407         0.050246        -0.166793
 C         1.814963        -1.366639         1.355735
 C         2.639592        -0.350661         2.144378
 O         4.074745        -0.353695         2.437440
 H         2.916408         1.503723        -0.796289
 H         3.384368         2.616560         0.507823
 H         4.290419         1.178531         0.287251
 H         1.947307         1.708078         3.150957
 H        -0.976026        -0.413865         0.067993
 H        -0.310391         1.175289        -0.407437
 H         0.170844        -0.373197        -1.224802
 H         1.196516        -2.086281         1.786694
 H         2.475858        -1.729910         0.623581
 H         4.284233        -0.920617         3.199974
