19
Iteration:  2494
 C         3.201370         1.795557         0.334871
 C         2.304534         0.802093         1.083492
 C         1.803944         0.795239         2.477832
 O         0.422455         0.394001         2.164606
 C         1.034742        -0.060826         0.918998
 C         0.025995        -0.246912        -0.219372
 C         1.804608        -1.395227         1.352441
 C         2.773213        -0.381898         1.990884
 O         4.091929        -0.495060         2.531849
 H         4.071112         2.003649         1.215419
 H         3.861071         1.492064        -0.658191
 H         2.879157         2.827331         0.380076
 H         2.208932         1.313745         3.326823
 H        -0.690486        -1.035233         0.027002
 H        -0.661333         0.601614        -0.369414
 H         0.521703        -0.428170        -1.211216
 H         1.217820        -2.171250         1.882899
 H         2.268437        -1.729968         0.320109
 H         4.075850        -1.018818         3.377891
