19
Iteration:   452charge 0 multiplicity 1
 C         2.970221         1.935840         0.681147
 C         2.292870         0.753864         1.164121
 C         1.816068         0.625151         2.540835
 O         0.438589         0.364538         2.054414
 C         1.077868        -0.125296         0.797110
 C         0.128590        -0.092037        -0.256040
 C         1.862671        -1.387731         1.229702
 C         2.775984        -0.380233         2.119019
 O         4.118108        -0.534907         2.436622
 H         3.719149         2.314930         1.396797
 H         3.544704         1.735236        -0.175463
 H         2.091236         2.630788         0.500496
 H         2.147279         1.342664         3.399110
 H        -0.463212        -0.957288        -0.139369
 H        -0.448046         0.871102        -0.170058
 H         0.570635        -0.250773        -1.278828
 H         1.235753        -2.158330         1.791346
 H         2.441630        -1.751832         0.421354
 H         4.529072        -1.077908         1.793965
