19
Iteration:   360charge 0 multiplicity 1
 C         2.888485         1.890159         0.365913
 C         2.307080         0.814048         1.206910
 C         1.747584         0.528466         2.628132
 O         0.457475         0.167459         2.055952
 C         1.084230        -0.107049         0.829650
 C         0.014529         0.165820        -0.195900
 C         2.120203        -1.342704         1.130532
 C         2.819440        -0.395473         1.995360
 O         4.053889        -0.584572         2.751253
 H         3.783899         2.395184         0.698736
 H         3.165088         1.721664        -0.746883
 H         2.228630         2.665654         0.351246
 H         2.110060         1.022440         3.593078
 H        -0.987199        -0.409139        -0.102025
 H        -0.173257         1.224170        -0.105415
 H         0.297990         0.014471        -1.242902
 H         1.537188        -2.154922         1.582989
 H         2.797738        -1.523440         0.201941
 H         4.645100        -1.006616         2.047032
