19
Iteration:   982charge 0 multiplicity 1
 C         2.920238         1.994938         0.556663
 C         2.337656         0.849814         1.194774
 C         1.805426         0.560738         2.574596
 O         0.440929         0.301330         2.054324
 C         1.062741        -0.086613         0.872172
 C         0.094608        -0.099937        -0.253791
 C         2.091307        -1.303590         1.140745
 C         2.779571        -0.414830         2.016778
 O         4.029159        -0.590301         2.573504
 H         3.659004         2.553831         1.113680
 H         3.238652         1.737698        -0.408663
 H         2.016814         2.738178         0.512529
 H         1.721303         1.266541         3.343749
 H        -0.629694        -0.988223         0.041376
 H        -0.535929         0.825472        -0.423551
 H         0.582676        -0.372915        -1.222352
 H         1.584772        -2.208183         1.634275
 H         2.773034        -1.465745         0.225908
 H         4.339080        -1.542667         2.623945
