19
Iteration:  2464
 C         3.391462         1.695183         0.367235
 C         2.286007         0.878446         1.140399
 C         1.754486         0.757187         2.560402
 O         0.432934         0.301002         2.175292
 C         1.014767        -0.093226         0.898545
 C        -0.048853        -0.202740        -0.220033
 C         1.911930        -1.389485         1.344406
 C         2.711841        -0.299282         2.019469
 O         4.001463        -0.467190         2.406340
 H         4.096396         1.986953         1.084612
 H         3.974195         1.183755        -0.367880
 H         2.875247         2.563891         0.046337
 H         1.995628         1.502811         3.300377
 H        -0.888245        -0.927595        -0.011986
 H        -0.574231         0.726315        -0.520794
 H         0.469546        -0.538211        -1.202810
 H         1.415015        -2.120144         1.929357
 H         2.487406        -1.607287         0.514318
 H         4.298303        -0.335202         3.301513
