19
Iteration:  2390charge 0 multiplicity 1
 C         2.918654         1.799989         0.136406
 C         2.345119         0.758134         1.115698
 C         1.877084         0.774637         2.526532
 O         0.453579         0.302821         2.204981
 C         1.082380        -0.119348         0.949953
 C         0.229489        -0.030617        -0.264235
 C         1.820028        -1.409791         1.330074
 C         2.800521        -0.353805         1.979683
 O         4.041240        -0.516658         2.701235
 H         3.796089         2.200737         0.572251
 H         3.354278         1.250703        -0.689816
 H         2.145192         2.593909        -0.286173
 H         2.037992         1.520260         3.300433
 H        -0.686610        -0.603187        -0.146902
 H        -0.060827         0.977585        -0.384301
 H         0.647128        -0.359119        -1.199705
 H         1.191687        -2.000550         2.123462
 H         2.248855        -1.872867         0.482919
 H         3.901102        -1.387073         3.156168
