19
Iteration:  3554charge 0 multiplicity 1
 C         3.119044         1.755822         0.147704
 C         2.357320         0.812589         1.145936
 C         1.773504         0.834650         2.491111
 O         0.464431         0.414147         2.177913
 C         1.053330        -0.187019         0.851224
 C         0.093476        -0.181171        -0.228033
 C         1.848965        -1.368642         1.416454
 C         2.785879        -0.334602         2.041666
 O         4.022978        -0.541381         2.589396
 H         4.201579         1.490407         0.413452
 H         2.916886         1.660089        -0.944126
 H         2.899369         2.837624         0.456492
 H         1.983067         1.498687         3.393481
 H        -0.510196        -1.015444         0.050284
 H        -0.602654         0.673668        -0.274145
 H         0.521423        -0.464403        -1.123559
 H         1.232805        -2.166009         1.918066
 H         2.437083        -1.973679         0.599900
 H         4.110729        -0.551725         3.547722
