19
Iteration:  2842
 C         3.205322         1.726071         0.424141
 C         2.313356         0.767169         1.125144
 C         1.849881         0.746860         2.490053
 O         0.481210         0.464660         2.193511
 C         1.052552        -0.041432         0.855008
 C        -0.011485        -0.262899        -0.226534
 C         1.787397        -1.361395         1.328595
 C         2.713273        -0.360448         2.026461
 O         4.110357        -0.518738         2.455356
 H         4.062300         2.365547         0.938411
 H         3.618228         1.317003        -0.481869
 H         2.496165         2.549689        -0.027177
 H         2.172178         1.349887         3.401498
 H        -0.770608        -1.090693        -0.094523
 H        -0.624645         0.684746        -0.292820
 H         0.611446        -0.412809        -1.212486
 H         1.228779        -2.027779         1.916383
 H         2.263041        -1.847524         0.480599
 H         3.924336        -0.657554         3.421124
