19
Iteration:  2109
 C         2.998566         2.011605         0.260841
 C         2.380775         0.802358         1.098244
 C         1.885927         0.744062         2.497611
 O         0.459718         0.369756         2.126207
 C         1.074688        -0.124890         0.843975
 C         0.053988        -0.196857        -0.249211
 C         1.912229        -1.409010         1.360539
 C         2.769160        -0.361910         2.069212
 O         4.003120        -0.666744         2.668482
 H         3.925569         2.407427         0.711802
 H         3.405529         1.445759        -0.674495
 H         2.328258         2.713660        -0.108601
 H         2.010704         1.577933         3.202851
 H        -0.699379        -0.926182         0.193961
 H        -0.365076         0.817514        -0.413818
 H         0.371147        -0.771443        -1.137306
 H         1.251919        -2.256506         1.688841
 H         2.604862        -1.903496         0.623792
 H         4.224463        -0.014429         3.335414
