19
Iteration:   541
 C         2.842084         1.855263         0.302281
 C         2.395765         0.863999         1.218151
 C         1.741605         0.569643         2.626340
 O         0.436533         0.270543         2.091188
 C         1.107597        -0.079124         0.874821
 C         0.082222         0.095159        -0.219227
 C         2.026315        -1.362907         1.091610
 C         2.833797        -0.444548         2.077016
 O         4.062614        -0.580912         2.744193
 H         3.778995         2.337019         0.681080
 H         3.049368         1.331172        -0.610049
 H         2.161428         2.727213         0.032157
 H         1.757896         1.160625         3.559314
 H        -0.654823        -0.641136        -0.059481
 H        -0.190867         1.174801        -0.235059
 H         0.522852        -0.115059        -1.275080
 H         1.787686        -2.475863         1.286701
 H         2.346337        -1.290589         0.049174
 H         4.470294        -1.288377         2.277924
