19
Iteration:  1489
 C         2.983107         1.789474         0.312984
 C         2.356029         0.737945         1.162904
 C         1.785303         0.688562         2.554693
 O         0.460216         0.438380         2.100202
 C         1.077436        -0.142127         0.927386
 C         0.077894        -0.135283        -0.241872
 C         1.850991        -1.332745         1.215246
 C         2.820213        -0.426639         2.077738
 O         4.123578        -0.552509         2.603997
 H         3.648836         2.492988         0.893870
 H         3.464979         1.488697        -0.550062
 H         2.101376         2.484282         0.078846
 H         1.961986         1.235628         3.429940
 H        -0.881970        -0.631977         0.103295
 H        -0.234560         0.835342        -0.621429
 H         0.520666        -0.645995        -1.086647
 H         1.426135        -2.297359         1.571413
 H         2.496546        -1.547493         0.305775
 H         4.115922         0.183587         3.210124
