19
Iteration:  4195
 C         2.949898         1.701461         0.080351
 C         2.344358         0.745563         1.064943
 C         1.895392         0.767161         2.486198
 O         0.524778         0.480585         2.305524
 C         1.044785        -0.117608         0.954924
 C         0.043862         0.162740        -0.120326
 C         1.771122        -1.393757         1.328856
 C         2.906835        -0.445968         1.914339
 O         4.092043        -0.746626         2.616462
 H         3.206153         2.643514         0.539772
 H         3.707280         1.206284        -0.470412
 H         2.187126         2.061039        -0.774606
 H         2.060526         1.246190         3.455554
 H        -1.009373        -0.131977         0.209835
 H         0.083963         1.248672        -0.408348
 H         0.281054        -0.426937        -1.087559
 H         1.434036        -2.199240         1.999377
 H         2.205214        -1.830504         0.422762
 H         3.876775        -0.672681         3.564119
