19
Iteration:  4407
 C         2.861237         1.795447         0.111341
 C         2.392472         0.663962         1.068224
 C         1.946870         0.780620         2.456680
 O         0.559812         0.462314         2.210721
 C         1.111679        -0.077725         0.965175
 C         0.163243         0.021568        -0.195296
 C         1.742833        -1.427093         1.449981
 C         2.793521        -0.480382         2.116512
 O         4.010619        -0.613784         2.551209
 H         3.869206         1.531904        -0.341287
 H         2.214475         2.070211        -0.790784
 H         3.218544         2.720140         0.559763
 H         2.292664         1.527792         3.163300
 H        -0.944154        -0.218135         0.140707
 H         0.168620         1.105985        -0.417571
 H         0.182194        -0.378310        -1.241303
 H         1.019400        -2.070944         2.026398
 H         2.046002        -1.953875         0.508574
 H         4.039591        -1.302728         3.245423
