19
Iteration:  4798
 C         3.013466         1.803255         0.191996
 C         2.342885         0.740250         0.990384
 C         1.852167         0.853557         2.462477
 O         0.547562         0.413014         2.214116
 C         1.104660        -0.065736         0.842623
 C         0.052269        -0.254340        -0.276047
 C         1.805517        -1.280529         1.410364
 C         2.725618        -0.280138         2.144367
 O         4.076701        -0.690779         2.645388
 H         3.960679         2.179319         0.450753
 H         3.214856         1.470175        -0.770775
 H         2.312455         2.686204         0.071358
 H         1.978993         1.604492         3.241501
 H        -0.568729        -1.037789         0.221103
 H        -0.615944         0.532736        -0.653954
 H         0.622106        -0.811971        -1.037985
 H         1.273687        -1.969357         2.018916
 H         2.452164        -1.761327         0.608964
 H         3.995361        -0.714632         3.614640
