19
Iteration:  4392charge 0 multiplicity 1
 C         2.997414         1.697631         0.104038
 C         2.411294         0.708581         1.060067
 C         1.917349         0.750135         2.491953
 O         0.547443         0.469882         2.251917
 C         0.987160        -0.130525         0.968993
 C         0.151333         0.078971        -0.121853
 C         1.793229        -1.425127         1.374197
 C         2.719845        -0.402405         1.958253
 O         4.002986        -0.577743         2.547669
 H         3.910237         1.422544        -0.375950
 H         2.255428         1.781004        -0.631638
 H         2.995771         2.724248         0.645063
 H         2.199815         1.330094         3.391697
 H        -0.823423        -0.173564         0.125627
 H         0.170752         1.097999        -0.530041
 H         0.557951        -0.627147        -0.780993
 H         1.320537        -2.199131         2.120280
 H         2.328913        -1.952016         0.539024
 H         3.915969        -1.074497         3.384564
