19
Iteration:   993charge 0 multiplicity 1
 C         2.904428         2.015955         0.568908
 C         2.321656         0.797196         1.219533
 C         1.683975         0.616744         2.593226
 O         0.450572         0.321897         2.072252
 C         1.159188        -0.059874         0.766161
 C         0.073694        -0.173798        -0.226766
 C         2.042609        -1.316778         1.109900
 C         2.831555        -0.366304         2.027268
 O         4.065137        -0.612503         2.612665
 H         3.751740         2.355789         1.143600
 H         3.272723         1.874282        -0.411480
 H         2.117777         2.854863         0.413375
 H         1.903707         1.127568         3.533245
 H        -0.804382        -0.870166         0.099347
 H        -0.292901         0.887095        -0.296245
 H         0.492135        -0.511054        -1.218994
 H         1.490655        -2.244081         1.504694
 H         2.618141        -1.698013         0.186416
 H         4.363002        -1.356748         2.101547
