19
Iteration:  3525
 C         3.198424         1.565837         0.218826
 C         2.254134         0.783294         1.154088
 C         1.722691         0.858388         2.524313
 O         0.438584         0.305853         2.165786
 C         1.004884        -0.143792         0.920198
 C         0.037794        -0.085745        -0.256211
 C         1.945479        -1.317790         1.417872
 C         2.755375        -0.240054         2.088410
 O         4.059250        -0.490518         2.478219
 H         4.249805         1.373464         0.617846
 H         3.124455         1.260543        -0.809517
 H         3.111752         2.578673         0.361792
 H         1.784521         1.600604         3.354148
 H        -0.796956        -0.702007         0.150188
 H        -0.272421         0.900384        -0.759859
 H         0.564885        -0.743724        -1.035306
 H         1.718548        -2.320609         1.696224
 H         2.649796        -1.587654         0.587617
 H         4.233582        -0.513525         3.431385
