19
Iteration:  3822charge 0 multiplicity 1
 C         2.889640         1.735290         0.139598
 C         2.423078         0.719219         1.010466
 C         1.871530         0.844706         2.439038
 O         0.499815         0.483503         2.194924
 C         0.995824        -0.179326         0.960512
 C         0.072860         0.043085        -0.281488
 C         1.805149        -1.422428         1.456841
 C         2.857587        -0.382959         2.080829
 O         4.107599        -0.669559         2.631196
 H         2.207793         2.158883        -0.640942
 H         3.311635         2.507739         0.806336
 H         3.725702         1.299854        -0.404578
 H         1.820179         1.540040         3.348363
 H        -0.848366        -0.371420        -0.107871
 H        -0.022222         1.057075        -0.475760
 H         0.509931        -0.372650        -1.220989
 H         1.396316        -2.004500         2.330289
 H         2.425472        -1.948048         0.768060
 H         4.139238        -1.253387         3.419256
