19
Iteration:  3390charge 0 multiplicity 1
 C         2.892852         1.849501         0.204177
 C         2.386363         0.723395         1.003434
 C         1.930561         0.778965         2.408589
 O         0.501294         0.515412         2.264958
 C         1.018622        -0.033373         0.962866
 C         0.174944        -0.259282        -0.342189
 C         1.801265        -1.326905         1.338037
 C         2.849361        -0.370841         2.030405
 O         4.008769        -0.712488         2.753804
 H         3.602523         2.596321         0.568685
 H         3.323247         1.494062        -0.750132
 H         2.069157         2.361831        -0.208077
 H         2.097960         1.430635         3.207810
 H        -0.421683        -1.187425        -0.292753
 H        -0.608549         0.642556        -0.350423
 H         0.803496        -0.326664        -1.213987
 H         1.341968        -2.051550         2.034738
 H         2.248780        -1.864124         0.486820
 H         4.106064        -0.353311         3.670515
