19
Iteration:   399charge 0 multiplicity 1
 C         3.032550         2.038824         0.500760
 C         2.279925         0.916763         1.156699
 C         1.883983         0.622106         2.560218
 O         0.533244         0.207962         2.258060
 C         1.022435        -0.013049         0.868539
 C         0.115815        -0.200954        -0.310829
 C         1.891450        -1.258003         1.127138
 C         2.813532        -0.383322         1.928028
 O         3.910284        -0.692720         2.588598
 H         3.729257         2.347715         1.337201
 H         3.447125         1.844998        -0.454566
 H         2.183060         2.880081         0.554385
 H         1.969739         1.140242         3.569408
 H        -0.489277        -1.061099        -0.165748
 H        -0.352928         0.779507        -0.596613
 H         0.802579        -0.507233        -1.172874
 H         1.388672        -2.077949         1.681565
 H         2.346395        -1.664686         0.251942
 H         4.764615        -0.673329         2.196468
