19
Iteration:  1112
 C         3.005170         1.937263         0.328321
 C         2.246615         0.885176         1.116592
 C         1.754308         0.637226         2.591884
 O         0.483665         0.098674         2.226894
 C         1.015919        -0.127667         0.950371
 C         0.197166        -0.001164        -0.305161
 C         1.962544        -1.305016         1.177364
 C         2.745108        -0.304962         1.959173
 O         4.022103        -0.617508         2.705318
 H         3.767692         2.457222         0.928475
 H         3.494050         1.584521        -0.617016
 H         2.206199         2.743601         0.113797
 H         1.881482         1.113457         3.632461
 H        -0.490238        -0.854388        -0.532441
 H        -0.423868         0.894618        -0.238024
 H         0.940582         0.160187        -1.077886
 H         1.633592        -2.265053         1.589388
 H         2.422865        -1.604517         0.184374
 H         4.713772        -0.662533         2.003104
