19
Iteration:   303charge 0 multiplicity 1
 C         2.894111         1.900196         0.414668
 C         2.254034         0.784152         1.307761
 C         1.748128         0.500371         2.650749
 O         0.440415         0.206571         2.270223
 C         1.038701        -0.075956         0.889433
 C         0.218442         0.124409        -0.363872
 C         1.985819        -1.375131         1.157708
 C         2.809089        -0.483644         1.865736
 O         4.063071        -0.479484         2.602359
 H         3.722963         2.354639         1.012729
 H         3.241047         1.466095        -0.533972
 H         2.139530         2.676632         0.223806
 H         1.963051         1.035969         3.569429
 H        -0.535341        -0.652660        -0.414688
 H        -0.244367         1.151352        -0.382433
 H         0.956576         0.066939        -1.246505
 H         1.547341        -2.336252         1.458703
 H         2.392279        -1.556897         0.108790
 H         4.743164        -0.413831         1.901918
