19
Iteration:  2406charge 0 multiplicity 1
 C         3.072515         1.713263         0.168291
 C         2.319967         0.813991         1.081509
 C         1.765947         0.676940         2.527836
 O         0.499384         0.362340         2.244143
 C         1.049212        -0.171799         0.912091
 C         0.104379        -0.033220        -0.270459
 C         1.902776        -1.367902         1.346362
 C         2.757083        -0.349897         2.056033
 O         4.014809        -0.452531         2.618723
 H         3.759240         2.423218         0.810308
 H         3.471812         1.235793        -0.811617
 H         2.378088         2.457961        -0.212102
 H         2.081404         1.126307         3.476647
 H        -0.862173        -0.583151        -0.172420
 H        -0.006855         1.086878        -0.423528
 H         0.650211        -0.472364        -1.144824
 H         1.387801        -2.165471         1.750070
 H         2.408746        -1.935692         0.502867
 H         4.207319        -1.173445         3.274427
