19
Iteration:  2892charge 0 multiplicity 1
 C         3.279936         1.739889         0.362832
 C         2.374641         0.801251         1.126239
 C         1.807792         0.830820         2.474045
 O         0.485917         0.290382         2.138295
 C         1.045422        -0.160078         0.915612
 C        -0.089182        -0.144670        -0.219578
 C         1.879572        -1.340616         1.382470
 C         2.721771        -0.307439         2.077558
 O         3.995409        -0.470111         2.416482
 H         4.186965         1.792819         0.958563
 H         3.714607         1.160323        -0.499611
 H         3.128934         2.795101         0.263199
 H         1.886590         1.604990         3.270760
 H        -0.702906        -0.960149         0.133532
 H        -0.613973         0.810182        -0.358212
 H         0.249939        -0.435116        -1.185525
 H         1.188978        -2.020131         2.049674
 H         2.394221        -1.876877         0.588098
 H         3.991109        -1.091660         3.174516
