19
Iteration:   257charge 0 multiplicity 1
 C         3.055429         2.149690         0.668983
 C         2.292812         0.892148         1.156225
 C         1.770014         0.677156         2.531174
 O         0.425306         0.170547         2.191760
 C         1.104210        -0.098865         0.856343
 C         0.094217        -0.182282        -0.295314
 C         2.001960        -1.348890         1.182020
 C         2.750129        -0.309723         1.986783
 O         3.991503        -0.752602         2.452486
 H         3.771127         2.509923         1.456662
 H         3.540628         1.984247        -0.250380
 H         2.354492         3.085841         0.518544
 H         1.926829         1.230806         3.405270
 H        -0.318751        -1.174993        -0.312813
 H        -0.632482         0.691801        -0.182785
 H         0.525226         0.074009        -1.324262
 H         1.571096        -2.100836         1.894569
 H         2.462949        -1.874649         0.338117
 H         4.665723        -0.551122         1.824704
