19
Iteration:  2533charge 0 multiplicity 1
 C         2.931003         1.850551         0.214342
 C         2.337271         0.767011         1.114196
 C         1.862444         0.805938         2.509810
 O         0.503919         0.437425         2.121049
 C         1.114329        -0.110654         0.869247
 C         0.132599        -0.084412        -0.283219
 C         1.878060        -1.443074         1.397311
 C         2.799076        -0.342932         2.092869
 O         4.062768        -0.661111         2.621202
 H         3.826566         2.138970         0.577774
 H         2.926592         1.532457        -0.773225
 H         2.117703         2.625581         0.284980
 H         1.948749         1.454927         3.425479
 H        -0.599729        -0.882820         0.074734
 H        -0.469281         0.862286        -0.349003
 H         0.549625        -0.374551        -1.242245
 H         1.198814        -1.943267         2.170237
 H         2.320282        -1.817414         0.464257
 H         3.835149        -1.396239         3.224479
