19
Iteration:  4318
 C         3.369839         1.584097         0.310622
 C         2.298876         0.819701         1.058251
 C         1.881498         0.764061         2.522852
 O         0.443123         0.521449         2.239316
 C         0.962488        -0.090578         0.940508
 C        -0.156963        -0.138401        -0.102578
 C         1.839802        -1.362291         1.363820
 C         2.752143        -0.365579         1.954769
 O         4.089046        -0.529794         2.396863
 H         4.423424         1.250870         0.455571
 H         3.068445         1.462927        -0.742712
 H         3.385285         2.704824         0.712299
 H         2.143289         1.392433         3.387454
 H        -0.915648        -1.044776        -0.093550
 H        -0.605750         0.939641        -0.185095
 H         0.320057        -0.134484        -1.096756
 H         1.220616        -2.165636         1.829921
 H         2.251512        -1.846721         0.446559
 H         4.187345        -1.019750         3.234469
