19
Iteration:  3950
 C         3.169925         1.701677         0.285718
 C         2.365662         0.710064         1.095261
 C         1.911546         0.797816         2.496714
 O         0.482625         0.546510         2.220769
 C         0.927038        -0.108527         0.988279
 C         0.012528        -0.173799        -0.240047
 C         1.747025        -1.350970         1.415820
 C         2.740323        -0.411591         1.940126
 O         4.132114        -0.546735         2.470168
 H         2.957618         1.663131        -0.826188
 H         3.089359         2.767441         0.590969
 H         4.156776         1.402210         0.460608
 H         2.333055         1.499923         3.224181
 H        -0.747321        -0.934972        -0.206006
 H        -0.598775         0.789979        -0.262201
 H         0.499733        -0.358762        -1.207612
 H         1.242411        -1.931842         2.113891
 H         1.958336        -2.050074         0.601175
 H         4.154182        -0.884411         3.381045
