19
Iteration:   694
 C         3.032635         1.899404         0.362562
 C         2.310666         0.786223         1.161866
 C         1.757777         0.596519         2.641804
 O         0.423836         0.114625         2.203409
 C         1.126320        -0.128569         0.821400
 C         0.038547         0.087918        -0.247915
 C         2.006743        -1.392435         1.078102
 C         2.788285        -0.324968         1.981020
 O         4.009365        -0.464798         2.708707
 H         3.882042         2.233327         1.022018
 H         3.538111         1.641523        -0.626619
 H         2.338158         2.774338         0.241091
 H         1.948213         1.355111         3.362773
 H        -0.801206        -0.596135        -0.103271
 H        -0.361388         1.119216        -0.219917
 H         0.549559        -0.187584        -1.226082
 H         1.496226        -2.245608         1.591237
 H         2.527902        -1.690750         0.151755
 H         4.581964        -1.168864         2.347044
