19
Iteration:  4212charge 0 multiplicity 1
 C         2.874291         1.721448         0.021110
 C         2.416494         0.802655         1.115569
 C         1.987703         0.708961         2.563461
 O         0.569252         0.431576         2.273804
 C         1.034852        -0.027669         1.029101
 C         0.137659         0.107006        -0.145516
 C         1.851372        -1.389071         1.324000
 C         2.726737        -0.446492         1.969655
 O         3.960228        -0.759817         2.545428
 H         3.321094         2.673753         0.410526
 H         3.773545         1.366567        -0.609588
 H         2.085709         1.865727        -0.594473
 H         2.448033         1.374067         3.317911
 H        -0.944903        -0.109507         0.064659
 H         0.070189         1.159401        -0.496611
 H         0.376688        -0.531550        -0.946156
 H         1.250450        -1.955258         2.082425
 H         2.212782        -1.908781         0.371794
 H         3.957395        -0.484883         3.478042
