19
Iteration:  3639charge 0 multiplicity 1
 C         3.029390         1.691370         0.133552
 C         2.284020         0.842856         1.144239
 C         1.810662         0.858991         2.531036
 O         0.460311         0.438326         2.196077
 C         1.041022        -0.114352         0.938547
 C         0.147706        -0.157904        -0.340867
 C         1.866597        -1.324662         1.415395
 C         2.789383        -0.355125         2.077406
 O         4.114928        -0.674462         2.572062
 H         3.462401         2.544865         0.466114
 H         3.687171         1.141777        -0.517014
 H         2.244549         2.287182        -0.423963
 H         1.871224         1.576037         3.427387
 H        -0.733673        -0.748595         0.224493
 H        -0.213628         0.846095        -0.714289
 H         0.571733        -0.599185        -1.273983
 H         1.221208        -1.769700         2.177754
 H         2.328993        -1.971473         0.729626
 H         4.103534        -0.894528         3.532109
