19
Iteration:  2577charge 0 multiplicity 1
 C         2.794373         1.765020         0.149507
 C         2.335389         0.792929         1.163469
 C         1.849795         0.733084         2.575213
 O         0.564655         0.415145         2.264862
 C         1.087733        -0.058558         0.904577
 C         0.244002         0.002534        -0.319583
 C         1.893536        -1.461546         1.318743
 C         2.772451        -0.385357         1.979189
 O         3.972722        -0.660035         2.624918
 H         3.686714         2.168663         0.528399
 H         3.118697         1.323946        -0.772320
 H         2.082253         2.536357        -0.325576
 H         2.228601         1.414456         3.374711
 H        -0.744185        -0.541648        -0.048414
 H         0.105297         1.079635        -0.648719
 H         0.817128        -0.551971        -1.077583
 H         1.277119        -2.066691         2.095225
 H         2.660919        -1.770344         0.541852
 H         3.810678        -0.408594         3.557343
