19
Iteration:  4246charge 0 multiplicity 1
 C         2.976067         1.734804         0.130482
 C         2.346096         0.779423         1.143309
 C         1.937532         0.841947         2.529641
 O         0.477953         0.487627         2.276561
 C         1.016562        -0.029861         0.982103
 C         0.031299        -0.019042        -0.216950
 C         1.783831        -1.293465         1.336822
 C         2.818141        -0.457995         2.033942
 O         4.128433        -0.852208         2.476278
 H         3.469910         2.530542         0.699767
 H         3.653657         1.222659        -0.596469
 H         2.273215         2.256508        -0.377343
 H         2.266274         1.679443         3.183133
 H        -0.871571        -0.545188        -0.070610
 H        -0.195899         0.990576        -0.421063
 H         0.501196        -0.395068        -1.129911
 H         1.294218        -1.951568         2.110224
 H         2.205603        -1.935732         0.547265
 H         4.158555        -0.766872         3.448979
