19
Iteration:  1303
 C         2.970491         1.847969         0.300728
 C         2.319519         0.855659         1.126907
 C         1.823537         0.638170         2.552706
 O         0.459141         0.271998         2.203376
 C         1.068125        -0.033862         0.826512
 C         0.084599        -0.045755        -0.260210
 C         1.978693        -1.377211         1.233873
 C         2.819405        -0.377181         1.996177
 O         4.008607        -0.613404         2.665055
 H         3.724646         2.484544         0.889093
 H         3.491693         1.497561        -0.619757
 H         2.185485         2.681046        -0.020024
 H         2.146379         0.882909         3.634323
 H        -0.369962        -1.096315        -0.163609
 H        -0.742878         0.724148        -0.246120
 H         0.711010        -0.022337        -1.172872
 H         1.583904        -2.377481         1.673020
 H         2.455005        -1.723471         0.289456
 H         3.925419         0.239086         3.233850
