19
Iteration:  1164charge 0 multiplicity 1
 C         2.900703         2.034741         0.407194
 C         2.405141         0.797085         1.182080
 C         1.740351         0.596874         2.509963
 O         0.380384         0.279073         2.091710
 C         1.137691        -0.124851         0.879667
 C         0.130609        -0.054159        -0.260037
 C         1.977642        -1.321024         1.255591
 C         2.795172        -0.424745         2.034829
 O         4.102800        -0.589124         2.583159
 H         3.841511         2.459646         0.842505
 H         3.326092         1.578272        -0.547359
 H         2.129014         2.738577         0.274608
 H         1.889394         1.250380         3.420335
 H        -0.495741        -0.936039        -0.124860
 H        -0.506009         0.780189        -0.052104
 H         0.473029        -0.000871        -1.237598
 H         1.393143        -2.128158         1.619473
 H         2.543108        -1.655900         0.334487
 H         3.998785        -1.248033         3.268734
