19
Iteration:  1349charge 0 multiplicity 1
 C         2.934893         1.912241         0.330167
 C         2.276618         0.854314         1.110619
 C         1.780589         0.751051         2.512934
 O         0.430018         0.284382         2.165518
 C         1.044480        -0.103743         0.903565
 C         0.177022        -0.058892        -0.315966
 C         2.020658        -1.370314         1.389868
 C         2.793570        -0.380487         2.047338
 O         4.021732        -0.640331         2.612963
 H         3.842563         2.299305         0.925915
 H         3.346160         1.409755        -0.640023
 H         2.333172         2.786084         0.070112
 H         1.870205         1.458812         3.401395
 H        -0.313877        -1.090929        -0.424403
 H        -0.673117         0.618601        -0.157516
 H         0.742797         0.210682        -1.200181
 H         1.582539        -2.142626         2.031081
 H         2.500242        -1.948271         0.537581
 H         4.569365        -1.229363         1.976150
