19
Iteration:   410charge 0 multiplicity 1
 C         3.007218         2.114410         0.587213
 C         2.287480         0.920264         1.102812
 C         1.832696         0.605848         2.580071
 O         0.514479         0.237587         2.223024
 C         1.010698        -0.108401         0.864901
 C         0.128269        -0.227234        -0.341440
 C         1.868525        -1.262825         1.252888
 C         2.793510        -0.298289         1.890390
 O         3.999852        -0.770908         2.576086
 H         3.931579         2.319569         1.214966
 H         3.575954         1.868243        -0.280901
 H         2.605752         3.185601         0.215877
 H         1.935320         1.153776         3.588562
 H        -0.633453        -0.966441        -0.266547
 H        -0.525131         0.670777        -0.560360
 H         0.810940        -0.403293        -1.246473
 H         1.388728        -2.035037         1.870908
 H         2.306746        -1.615697         0.347340
 H         4.595098        -0.653486         1.806069
