19
Iteration:  2649charge 0 multiplicity 1
 C         3.318412         1.719174         0.381340
 C         2.337187         0.782518         1.069981
 C         1.799040         0.807226         2.531866
 O         0.477128         0.362225         2.185747
 C         1.046481        -0.127262         0.900896
 C        -0.082407        -0.199523        -0.159958
 C         1.849708        -1.372727         1.290869
 C         2.766241        -0.298120         1.980412
 O         4.003652        -0.465260         2.472956
 H         4.007972         2.024351         1.176881
 H         3.927955         1.336071        -0.493621
 H         2.847847         2.594634         0.018140
 H         1.720934         1.474915         3.470917
 H        -0.792694        -0.988500        -0.039824
 H        -0.614557         0.712833        -0.315732
 H         0.585152        -0.407778        -0.989583
 H         1.306268        -2.081569         1.839141
 H         2.309388        -1.670793         0.398364
 H         3.959560        -1.146696         3.155558
