19
Iteration:  4591charge 0 multiplicity 1
 C         2.960227         1.754465         0.158429
 C         2.335387         0.756240         1.144131
 C         1.900139         0.877469         2.566471
 O         0.517486         0.441790         2.224330
 C         1.093601        -0.047758         0.897684
 C         0.160877        -0.146777        -0.252251
 C         1.730317        -1.349603         1.335398
 C         2.735192        -0.385529         2.115719
 O         4.073320        -0.663723         2.508768
 H         2.356554         1.700332        -0.745979
 H         3.037707         2.755812         0.518714
 H         3.938301         1.238822        -0.150968
 H         2.223122         1.454074         3.438141
 H        -0.793897        -0.655136         0.004810
 H        -0.195102         0.803498        -0.693026
 H         0.602768        -0.732998        -1.027187
 H         1.337381        -2.112272         1.983548
 H         2.479384        -1.743406         0.589333
 H         3.942224        -0.728221         3.477340
