19
Iteration:  4539charge 0 multiplicity 1
 C         3.199333         1.518458         0.209453
 C         2.307972         0.701727         1.111465
 C         1.775006         0.808110         2.474845
 O         0.521320         0.294879         2.307465
 C         1.071718        -0.131811         0.814149
 C        -0.028772         0.072850        -0.214876
 C         1.788170        -1.358858         1.351388
 C         2.742686        -0.368734         2.163421
 O         4.071623        -0.358858         2.451002
 H         2.951967         1.569964        -0.899773
 H         3.312626         2.551253         0.702421
 H         4.169930         1.102114         0.336243
 H         2.018562         1.624931         3.163939
 H        -1.045316        -0.343926         0.074452
 H        -0.181449         1.102382        -0.439471
 H         0.337939        -0.489435        -1.116047
 H         1.343419        -2.231284         1.989147
 H         2.468658        -1.891849         0.624000
 H         4.228716        -0.937935         3.221266
