19
Iteration:  3674charge 0 multiplicity 1
 C         3.199623         1.547223         0.180183
 C         2.307466         0.753852         1.070741
 C         1.849249         0.759415         2.557684
 O         0.463936         0.416721         2.244898
 C         0.983970        -0.160529         0.958155
 C         0.123715        -0.060932        -0.234798
 C         1.850107        -1.358519         1.313060
 C         2.741532        -0.390230         2.068711
 O         4.005570        -0.349428         2.513198
 H         3.332732         2.420140         0.787078
 H         4.189818         1.245193        -0.151175
 H         2.601320         1.679465        -0.727362
 H         1.911926         1.330946         3.484785
 H        -0.927332        -0.401338         0.033288
 H        -0.079755         1.031246        -0.599884
 H         0.349502        -0.798503        -0.938898
 H         1.466846        -2.164702         1.897794
 H         2.336085        -1.826655         0.409360
 H         4.005387        -0.738457         3.420740
