19
Iteration:  1380charge 0 multiplicity 1
 C         2.975614         1.897509         0.357985
 C         2.366532         0.779647         1.132963
 C         1.807922         0.770864         2.506463
 O         0.475039         0.263351         2.247222
 C         0.987649        -0.061923         0.869511
 C         0.192312        -0.120945        -0.350227
 C         1.855669        -1.384523         1.339103
 C         2.804120        -0.426133         2.019581
 O         4.028993        -0.582404         2.555689
 H         3.942952         2.258462         0.841749
 H         3.374173         1.668674        -0.638270
 H         2.229427         2.764672         0.319769
 H         1.920681         1.121487         3.585524
 H        -0.469269        -1.052650        -0.222800
 H        -0.359558         0.839521        -0.453942
 H         0.823649        -0.297062        -1.218304
 H         1.236840        -2.068087         2.003305
 H         2.290640        -1.928994         0.449992
 H         4.433583         0.263895         2.694388
