19
Iteration:  3908charge 0 multiplicity 1
 C         3.347818         1.602294         0.301046
 C         2.362634         0.834746         1.095048
 C         1.812047         0.877650         2.443768
 O         0.469436         0.417325         2.185696
 C         1.052679        -0.130149         0.915664
 C        -0.031056        -0.162118        -0.055040
 C         1.779286        -1.387521         1.366058
 C         2.719126        -0.341695         2.069409
 O         4.007864        -0.508167         2.367430
 H         2.914413         1.759569        -0.717907
 H         3.444865         2.625079         0.689242
 H         4.270841         1.201426         0.308810
 H         1.868321         1.537579         3.330212
 H        -0.889123        -0.859159         0.069718
 H        -0.497070         0.887926         0.069896
 H         0.394997        -0.307183        -1.187289
 H         1.262434        -2.146584         1.897577
 H         2.360048        -1.815482         0.572251
 H         4.089579        -1.013794         3.188795
