19
Iteration:  2064charge 0 multiplicity 1
 C         3.187908         1.845700         0.272737
 C         2.256993         0.856055         1.095831
 C         1.808987         0.754675         2.475840
 O         0.440317         0.270931         2.184155
 C         1.014450        -0.091128         0.872376
 C         0.016442        -0.126075        -0.240125
 C         1.961602        -1.443578         1.293993
 C         2.741866        -0.360930         2.093638
 O         4.044720        -0.523433         2.592639
 H         3.877824         2.205906         0.999511
 H         3.814227         1.382870        -0.572472
 H         2.673252         2.635147        -0.159391
 H         1.869561         1.397358         3.432111
 H        -0.936087        -0.549990         0.167997
 H        -0.129872         0.851037        -0.676073
 H         0.316082        -0.900868        -0.982309
 H         1.808624        -2.404354         1.852515
 H         2.393824        -1.765769         0.362478
 H         4.055888        -0.102147         3.483761
