19
Iteration:   106
 C         2.785733         2.024129         0.588718
 C         2.288473         0.814215         1.309948
 C         1.757679         0.500905         2.655834
 O         0.390563         0.315822         2.114626
 C         1.027704        -0.104596         0.820630
 C         0.154018         0.052190        -0.375049
 C         1.973422        -1.401213         1.161795
 C         2.860877        -0.471210         1.993326
 O         4.245287        -0.680540         2.499094
 H         3.662554         2.545937         1.095374
 H         3.233140         1.665530        -0.440907
 H         1.972125         2.711538         0.404201
 H         1.940306         1.178031         3.519020
 H        -0.444856        -0.875503        -0.463590
 H        -0.628290         0.862432        -0.157726
 H         0.854316         0.400362        -1.229241
 H         1.517396        -2.342014         1.683613
 H         2.385926        -1.592547         0.078558
 H         4.529154         0.218551         2.540827
