19
Iteration:  2275charge 0 multiplicity 1
 C         3.188113         1.744933         0.366850
 C         2.384106         0.791214         1.145891
 C         1.674727         0.765701         2.520183
 O         0.447389         0.363528         2.124495
 C         1.015884        -0.132705         0.841578
 C        -0.021277        -0.213434        -0.190008
 C         1.943835        -1.357817         1.301954
 C         2.791727        -0.273765         2.046866
 O         4.043279        -0.571166         2.532363
 H         4.134470         2.184781         0.906373
 H         3.735128         1.319193        -0.535787
 H         2.541128         2.559154         0.044194
 H         1.975191         1.551255         3.152128
 H        -0.942208        -0.781506         0.236719
 H        -0.262515         0.928879        -0.407918
 H         0.218426        -0.694780        -1.202155
 H         1.591203        -2.263130         1.929664
 H         2.744618        -1.548899         0.400181
 H         4.051166         0.099911         3.274411
