19
Iteration:  2729charge 0 multiplicity 1
 C         3.033268         1.800774         0.212478
 C         2.341867         0.766603         1.099638
 C         1.834902         0.737289         2.493521
 O         0.481335         0.353324         2.227893
 C         0.964715        -0.136394         0.907083
 C         0.072239        -0.022430        -0.305127
 C         1.880569        -1.365640         1.376502
 C         2.749475        -0.348377         2.033338
 O         4.109814        -0.620367         2.573144
 H         3.943795         1.962796         0.759528
 H         3.371249         1.334676        -0.787627
 H         2.536803         2.856166         0.292280
 H         1.878374         1.406943         3.275977
 H        -0.867085        -0.688878        -0.150290
 H        -0.138203         1.085844        -0.480793
 H         0.613116        -0.377430        -1.210490
 H         1.534732        -2.023191         2.105358
 H         2.489104        -1.954304         0.751160
 H         4.022331        -0.588144         3.526575
