19
Iteration:  4395charge 0 multiplicity 1
 C         2.973676         1.726141         0.117968
 C         2.422826         0.706921         1.028996
 C         1.935451         0.745328         2.482579
 O         0.550848         0.471104         2.245307
 C         1.036343        -0.147094         1.000191
 C         0.163238         0.081757        -0.137589
 C         1.769158        -1.412273         1.373610
 C         2.706046        -0.429257         1.977763
 O         3.985108        -0.577018         2.548162
 H         3.885413         1.337167        -0.367011
 H         2.195214         1.795627        -0.671215
 H         2.989385         2.725180         0.623677
 H         2.108101         1.382632         3.347785
 H        -0.903866        -0.171416         0.213286
 H         0.166202         1.132711        -0.495116
 H         0.577694        -0.652487        -0.820352
 H         1.345538        -2.136127         2.146706
 H         2.333813        -1.933001         0.550396
 H         4.017243        -1.113281         3.362792
