19
Iteration:  4612
 C         2.961435         1.863120         0.195567
 C         2.384003         0.732444         1.029087
 C         1.892463         0.836231         2.434733
 O         0.531166         0.483042         2.200896
 C         1.048048        -0.113056         0.950941
 C         0.084515        -0.157089        -0.274149
 C         1.854977        -1.336078         1.459367
 C         2.820596        -0.341886         2.074700
 O         4.038142        -0.763124         2.599874
 H         2.218329         1.957512        -0.582857
 H         2.847154         2.706143         0.810585
 H         4.022946         1.691137        -0.311651
 H         2.077467         1.659426         3.148549
 H        -0.824662        -0.808232        -0.212919
 H        -0.547525         0.814257        -0.449581
 H         0.526976        -0.471860        -1.200833
 H         1.240266        -1.899215         2.149385
 H         2.290171        -1.925725         0.608523
 H         3.865960        -1.119965         3.497377
