19
Iteration:   637
 C         2.995179         2.003601         0.557583
 C         2.382814         0.865720         1.281555
 C         1.725821         0.655877         2.587369
 O         0.416687         0.371896         2.067021
 C         1.136728        -0.063368         0.793398
 C         0.037400        -0.220092        -0.247662
 C         1.896904        -1.320630         1.154472
 C         2.790972        -0.438052         2.072067
 O         4.096204        -0.691073         2.525224
 H         3.915532         2.412678         1.048265
 H         3.451096         1.618759        -0.486808
 H         2.363092         2.807168         0.358881
 H         2.086984         1.064117         3.538484
 H        -0.537690        -1.050238         0.063355
 H        -0.485491         0.745511        -0.481637
 H         0.538628        -0.589286        -1.213466
 H         1.356703        -2.202435         1.615581
 H         2.381013        -1.670551         0.261096
 H         4.498598         0.095849         2.147966
