19
Iteration:  1585charge 0 multiplicity 1
 C         3.009648         1.777564         0.228156
 C         2.365473         0.795776         1.165483
 C         1.816356         0.695220         2.560069
 O         0.415626         0.420778         2.100053
 C         1.031390        -0.030139         0.867743
 C         0.107756        -0.144856        -0.195709
 C         1.878653        -1.397530         1.250644
 C         2.790081        -0.438759         2.069865
 O         4.099585        -0.567257         2.694039
 H         3.976721         2.222244         0.553255
 H         3.246545         1.350930        -0.750802
 H         2.361970         2.734631         0.167239
 H         1.828884         1.289730         3.434305
 H        -0.471927        -1.053769         0.096275
 H        -0.641912         0.626582        -0.362972
 H         0.759057        -0.256118        -1.036487
 H         1.276786        -2.229662         1.699866
 H         2.321733        -1.795906         0.364205
 H         4.474136         0.292016         2.492016
