19
Iteration:  1408
 C         2.981342         1.867223         0.372230
 C         2.290344         0.722708         1.212024
 C         1.800242         0.665035         2.569616
 O         0.430695         0.445756         2.097099
 C         1.042946        -0.151502         0.870906
 C         0.097333        -0.182089        -0.255175
 C         1.944261        -1.378954         1.242714
 C         2.822075        -0.357209         2.064916
 O         4.112469        -0.521351         2.514892
 H         3.855282         2.149462         0.914140
 H         3.275268         1.591140        -0.701202
 H         2.429396         2.811078         0.225388
 H         1.828420         1.142579         3.571702
 H        -0.853753        -0.502196         0.072706
 H         0.038749         0.901578        -0.444194
 H         0.464462        -0.698917        -1.160058
 H         1.429865        -2.264584         1.668801
 H         2.489651        -1.654568         0.379855
 H         3.978957        -0.561348         3.459534
