19
Iteration:  4760
 C         3.127047         1.699377         0.182434
 C         2.286075         0.683982         1.046842
 C         1.786922         0.741967         2.502495
 O         0.411062         0.472844         2.125017
 C         0.996186        -0.197051         0.935090
 C         0.136068        -0.037372        -0.125394
 C         1.924829        -1.437480         1.440673
 C         2.805276        -0.368428         2.004581
 O         4.030015        -0.386793         2.548513
 H         3.493639         2.533643         0.894755
 H         3.954214         0.991339        -0.279918
 H         2.592674         2.083440        -0.654667
 H         2.161884         1.279559         3.386477
 H        -0.799312        -0.495221         0.182031
 H        -0.074836         0.935119        -0.478999
 H         0.456315        -0.723781        -0.934403
 H         1.337582        -2.255816         2.084010
 H         2.450068        -1.822982         0.562853
 H         3.985253        -0.982743         3.326222
