19
Iteration:  4691
 C         3.168660         1.609431         0.190938
 C         2.351135         0.883652         1.148854
 C         1.770157         0.841332         2.533361
 O         0.414593         0.412002         2.197408
 C         1.006230        -0.171347         1.012052
 C         0.092597        -0.135195        -0.166991
 C         1.909056        -1.390030         1.349089
 C         2.748381        -0.265833         1.977626
 O         4.027798        -0.544914         2.463370
 H         2.815581         2.680231         0.032556
 H         4.200311         1.521959         0.680212
 H         3.276621         0.929854        -0.670360
 H         1.937814         1.261781         3.521105
 H        -0.798741        -0.872603        -0.201716
 H        -0.316731         0.856557        -0.358337
 H         0.659636        -0.351622        -1.125736
 H         1.423250        -2.263994         1.828424
 H         2.500758        -1.727606         0.460429
 H         4.031013        -0.436420         3.430592
