19
Iteration:  4147charge 0 multiplicity 1
 C         3.260713         1.664632         0.252411
 C         2.362274         0.811402         1.114018
 C         1.898935         0.752028         2.527726
 O         0.458194         0.490994         2.207386
 C         0.985947        -0.036026         0.965946
 C        -0.066047        -0.082329        -0.089374
 C         1.781500        -1.419419         1.356340
 C         2.787260        -0.380490         2.006414
 O         4.062972        -0.597255         2.363896
 H         3.995306         2.198832         0.901569
 H         3.771363         1.060521        -0.550593
 H         2.762359         2.438539        -0.225134
 H         2.258171         1.529642         3.243690
 H        -0.811948        -0.770653         0.088638
 H        -0.491940         0.876533        -0.123814
 H         0.317198        -0.253410        -1.041228
 H         0.996392        -1.932918         2.056180
 H         2.047182        -2.070746         0.450032
 H         4.059622        -1.159914         3.163241
