19
Iteration:  3583charge 0 multiplicity 1
 C         2.965575         1.820540         0.213878
 C         2.421573         0.720121         1.053237
 C         1.944296         0.733433         2.442892
 O         0.540502         0.542042         2.166148
 C         0.978661        -0.176787         0.859945
 C         0.085860        -0.214393        -0.271633
 C         1.779191        -1.350072         1.416761
 C         2.847804        -0.438254         2.022060
 O         4.007011        -0.499990         2.709218
 H         3.961785         1.867770         0.383019
 H         2.806841         1.782008        -0.867526
 H         2.465285         2.779493         0.559064
 H         2.296680         1.451210         3.159794
 H        -0.529365        -1.260791        -0.282569
 H        -0.658148         0.554631        -0.281703
 H         0.695340        -0.359688        -1.235687
 H         1.149492        -1.838498         2.164649
 H         2.171786        -1.941231         0.656528
 H         3.978297        -0.908269         3.603028
