19
Iteration:   511charge 0 multiplicity 1
 C         2.970781         1.857703         0.254346
 C         2.251253         0.907187         1.194863
 C         1.742869         0.620729         2.629178
 O         0.515484         0.130857         2.240962
 C         1.145003        -0.065475         0.800555
 C         0.100028         0.098398        -0.222904
 C         2.039407        -1.352966         1.094596
 C         2.807614        -0.293829         2.011366
 O         3.920363        -0.684521         2.748280
 H         3.883999         2.274047         0.756650
 H         3.124066         1.415042        -0.735170
 H         2.473013         2.877428        -0.081156
 H         1.809880         1.079599         3.544400
 H        -0.693372        -0.623892         0.215834
 H        -0.352218         1.071147        -0.360026
 H         0.484218        -0.194798        -1.205832
 H         1.713985        -2.324066         1.376254
 H         2.572790        -1.557136         0.116508
 H         4.689063        -0.503774         2.127282
