19
Iteration:  4313charge 0 multiplicity 1
 C         3.330427         1.587005         0.314185
 C         2.327682         0.771827         1.059856
 C         1.922689         0.802032         2.526420
 O         0.462865         0.500089         2.243285
 C         0.892593        -0.062442         0.897462
 C        -0.175413        -0.140625        -0.130374
 C         1.813450        -1.340072         1.360233
 C         2.786591        -0.385502         1.969538
 O         4.115828        -0.519078         2.420130
 H         4.329675         1.277048         0.608892
 H         3.271130         1.611978        -0.790098
 H         3.314249         2.557164         0.700414
 H         2.020851         1.370530         3.450568
 H        -0.816502        -0.928403        -0.116640
 H        -0.661730         0.768838        -0.177217
 H         0.297433        -0.173979        -1.122726
 H         1.196759        -2.082842         1.961119
 H         2.126811        -1.830504         0.431418
 H         4.253205        -1.114302         3.176904
