19
Iteration:  3281charge 0 multiplicity 1
 C         3.277998         1.534315         0.291169
 C         2.311475         0.907933         1.209994
 C         1.737772         0.785109         2.565549
 O         0.378219         0.319017         2.151232
 C         1.034369        -0.085410         0.919855
 C         0.018060        -0.199563        -0.256504
 C         1.866976        -1.348986         1.294310
 C         2.790401        -0.318746         2.076165
 O         4.072555        -0.363988         2.467466
 H         4.308187         1.576766         0.855928
 H         3.427952         0.940253        -0.649620
 H         2.912464         2.511525         0.017334
 H         1.859351         1.336162         3.570038
 H        -0.992200        -0.458665         0.124050
 H        -0.158690         0.836081        -0.789335
 H         0.291738        -0.835547        -1.060423
 H         1.438912        -2.156346         1.806906
 H         2.340782        -1.639043         0.395768
 H         4.277151        -0.748844         3.331827
