19
Iteration:  3145charge 0 multiplicity 1
 C         2.921959         1.715644         0.152011
 C         2.350229         0.741827         1.088398
 C         1.819220         0.839058         2.579681
 O         0.482004         0.353573         2.221876
 C         1.015158        -0.102575         0.930468
 C         0.164600        -0.051454        -0.351087
 C         1.841358        -1.340152         1.373856
 C         2.829054        -0.367253         2.072556
 O         4.044389        -0.577169         2.611972
 H         3.899295         1.946561         0.403408
 H         3.118760         1.124779        -0.744104
 H         2.444305         2.774865         0.050175
 H         2.041147         1.388214         3.455821
 H        -0.785297        -0.652407        -0.228764
 H         0.094693         0.974769        -0.732561
 H         0.857297        -0.537086        -1.174183
 H         1.341398        -2.055480         2.002064
 H         2.459156        -1.858204         0.655559
 H         4.172263        -0.820147         3.534415
