19
Iteration:  4206
 C         2.894787         1.715325         0.037675
 C         2.405243         0.773443         1.089332
 C         1.940717         0.718616         2.522457
 O         0.548100         0.459644         2.284288
 C         1.000373        -0.067276         1.030728
 C         0.118936         0.132624        -0.153416
 C         1.867780        -1.428108         1.310018
 C         2.812496        -0.376997         1.952247
 O         4.008426        -0.764149         2.582842
 H         3.347560         2.602363         0.461306
 H         3.757751         1.324982        -0.436871
 H         1.993369         1.918484        -0.738228
 H         2.355481         1.213181         3.408140
 H        -0.932751        -0.078166         0.259578
 H         0.089731         1.236397        -0.402664
 H         0.363896        -0.539567        -1.048850
 H         1.205469        -2.019627         1.970844
 H         1.868666        -1.924799         0.367737
 H         3.938760        -0.550744         3.529877
