19
Iteration:  2333
 C         2.865446         1.880454         0.269040
 C         2.458929         0.782149         1.061654
 C         1.796480         0.830495         2.467453
 O         0.483597         0.464381         2.167385
 C         1.092143        -0.065838         0.961756
 C         0.187959        -0.240440        -0.300477
 C         1.856243        -1.329501         1.351372
 C         2.758620        -0.413741         2.028707
 O         4.050534        -0.729554         2.616547
 H         3.788114         2.187037         0.688646
 H         3.038230         1.561499        -0.733839
 H         2.127406         2.833727         0.257734
 H         2.131359         1.344113         3.421021
 H        -0.578789        -1.042445        -0.220971
 H        -0.449570         0.656064        -0.435807
 H         0.874975        -0.332531        -1.180970
 H         1.295997        -2.018893         2.146452
 H         2.328122        -2.040130         0.656736
 H         4.079664        -0.303704         3.491153
