19
Iteration:  2424
 C         3.122269         1.630044         0.288168
 C         2.351678         0.765960         1.190272
 C         1.825216         0.792921         2.586060
 O         0.393958         0.308143         2.152048
 C         1.015576        -0.058854         0.879111
 C         0.024366        -0.048683        -0.266617
 C         1.936106        -1.407410         1.302239
 C         2.775961        -0.379747         2.059594
 O         4.070322        -0.420539         2.501891
 H         3.847662         2.264488         0.891435
 H         3.649101         0.994723        -0.450909
 H         2.596393         2.500241        -0.288089
 H         1.868703         1.563438         3.356264
 H        -0.824571        -0.593384         0.114306
 H        -0.309368         0.947189        -0.480844
 H         0.478336        -0.501653        -1.098409
 H         1.650104        -2.399694         1.895217
 H         2.495515        -1.805998         0.416004
 H         3.871136        -0.770066         3.423476
