19
Iteration:  4547
 C         3.190104         1.518107         0.215294
 C         2.239562         0.786999         1.124129
 C         1.848285         0.798927         2.490724
 O         0.465739         0.320782         2.259878
 C         0.977524        -0.121639         0.904361
 C         0.012628         0.055829        -0.265042
 C         1.845312        -1.434990         1.379738
 C         2.786536        -0.329624         2.083802
 O         4.105512        -0.398878         2.477424
 H         2.828791         1.619778        -0.800871
 H         3.166717         2.521643         0.543182
 H         4.227367         0.974158         0.173701
 H         2.030170         1.379815         3.389609
 H        -0.887463        -0.346815         0.202595
 H         0.049995         1.099326        -0.477535
 H         0.343082        -0.471865        -1.102122
 H         1.150146        -2.090273         1.999947
 H         2.337096        -1.897742         0.465036
 H         4.181087        -0.887445         3.322624
