19
Iteration:  4071charge 0 multiplicity 1
 C         3.197556         1.682834         0.196001
 C         2.343287         0.725996         1.106676
 C         1.845099         0.764200         2.553995
 O         0.460415         0.474465         2.206399
 C         0.919765        -0.155817         0.895924
 C        -0.026045         0.004291        -0.152733
 C         1.751483        -1.323258         1.396307
 C         2.821728        -0.403670         2.010696
 O         4.172853        -0.600072         2.458999
 H         4.241467         1.263598        -0.004926
 H         2.719524         1.734485        -0.828742
 H         3.284030         2.668296         0.502185
 H         2.148932         1.568661         3.272241
 H        -0.867620        -0.550439         0.057170
 H        -0.346027         1.001925        -0.175938
 H         0.315913        -0.374592        -1.074810
 H         1.331229        -1.911455         2.220803
 H         2.210160        -2.001743         0.663300
 H         3.965917        -0.993825         3.346122
