19
Iteration:   878charge 0 multiplicity 1
 C         2.960988         2.005433         0.484876
 C         2.290747         0.845505         1.242651
 C         1.727258         0.498149         2.643080
 O         0.478621         0.127114         2.224245
 C         1.055643        -0.140593         0.820119
 C         0.136589         0.021746        -0.352958
 C         2.015351        -1.290831         1.129202
 C         2.759719        -0.365314         1.984648
 O         4.029296        -0.491263         2.586842
 H         3.865897         2.406115         0.988166
 H         3.415098         1.562784        -0.481427
 H         2.301518         2.773306         0.237576
 H         1.983284         1.129330         3.624088
 H        -0.701716        -0.636691        -0.394025
 H        -0.283882         1.013146        -0.477665
 H         0.740415        -0.322935        -1.223462
 H         1.573923        -2.169346         1.614175
 H         2.575535        -1.651813         0.282357
 H         4.409982        -1.243338         2.153373
