19
Iteration:   121charge 0 multiplicity 1
 C         2.779221         1.952993         0.480689
 C         2.315458         0.786426         1.285613
 C         1.740870         0.479359         2.699592
 O         0.323436         0.274293         2.203593
 C         1.093642        -0.138265         0.923377
 C         0.283339         0.130019        -0.354643
 C         1.937493        -1.393455         1.095680
 C         2.844509        -0.434717         2.005522
 O         4.177207        -0.603604         2.449361
 H         3.588481         2.514494         0.976515
 H         3.084483         1.644145        -0.581650
 H         1.944401         2.648183         0.394225
 H         1.816111         0.723296         3.727712
 H        -0.500232        -0.554419        -0.633884
 H        -0.044143         1.140079        -0.305524
 H         0.842065         0.076369        -1.272953
 H         1.434356        -2.203720         1.501662
 H         2.561276        -1.626446         0.279788
 H         4.693953         0.230355         2.552303
