19
Iteration:  4207charge 0 multiplicity 1
 C         2.890886         1.715435         0.036083
 C         2.409387         0.779442         1.093808
 C         1.948856         0.715432         2.530604
 O         0.551752         0.454292         2.280445
 C         1.002844        -0.059928         1.035370
 C         0.129198         0.125734        -0.152034
 C         1.869370        -1.425661         1.312396
 C         2.794002        -0.384730         1.955843
 O         3.999918        -0.763809         2.576839
 H         3.367188         2.607082         0.453294
 H         3.776143         1.347154        -0.459647
 H         1.964322         1.906139        -0.743702
 H         2.386239         1.233579         3.378614
 H        -0.996521        -0.090104         0.249519
 H         0.081351         1.283203        -0.426393
 H         0.368994        -0.559061        -1.053008
 H         1.218274        -1.977880         1.971425
 H         1.906538        -1.927170         0.360394
 H         3.942302        -0.538168         3.522240
