19
Iteration:   987charge 0 multiplicity 1
 C         2.912545         1.996636         0.578803
 C         2.307395         0.825027         1.199738
 C         1.746571         0.560027         2.581067
 O         0.457085         0.329723         2.055403
 C         1.096844        -0.065554         0.812524
 C         0.071746        -0.145405        -0.225451
 C         2.101208        -1.302586         1.125452
 C         2.807390        -0.414514         2.021527
 O         4.038992        -0.597665         2.588301
 H         3.739178         2.485501         1.140320
 H         3.219117         1.836097        -0.527030
 H         2.070437         2.660271         0.444884
 H         1.691814         1.317693         3.455090
 H        -0.619982        -0.862371         0.066119
 H        -0.352728         0.840393        -0.351550
 H         0.583076        -0.395624        -1.163561
 H         1.510318        -2.089594         1.578606
 H         2.705546        -1.534029         0.290694
 H         4.360552        -1.489415         2.353928
