19
Iteration:    52charge 0 multiplicity 1
 C         3.023525         2.231072         0.639676
 C         2.301373         1.026821         1.135090
 C         1.814791         0.663320         2.539581
 O         0.480476         0.147882         2.140134
 C         0.946844        -0.041953         0.833095
 C        -0.090426        -0.215990        -0.259275
 C         2.082830        -1.335051         1.071456
 C         2.875631        -0.316603         1.896764
 O         4.030706        -0.895534         2.634093
 H         3.758704         2.501739         1.471307
 H         3.610804         1.966748        -0.361825
 H         2.382759         3.054957         0.470455
 H         2.022915         1.048212         3.598713
 H        -0.011928        -1.266241        -0.496402
 H        -1.080910         0.302785        -0.130350
 H         0.319872         0.175990        -1.259610
 H         1.533979        -2.170843         1.558461
 H         2.644588        -1.667123         0.133993
 H         4.548869        -0.211702         3.058322
