19
Iteration:  3254
 C         3.267751         1.680291         0.313017
 C         2.303299         0.812549         1.091780
 C         1.735477         0.833599         2.479700
 O         0.435382         0.331638         2.142921
 C         1.089575        -0.137289         0.857500
 C        -0.013445        -0.129682        -0.184749
 C         1.905973        -1.406361         1.384473
 C         2.750427        -0.293549         2.100134
 O         4.038529        -0.496484         2.481695
 H         3.923201         2.043695         1.059575
 H         3.816818         1.293719        -0.554116
 H         2.547148         2.476047        -0.126872
 H         1.869907         1.518236         3.258156
 H        -0.924042        -0.768530         0.088473
 H        -0.432481         0.856755        -0.422566
 H         0.419467        -0.570944        -1.186493
 H         1.374335        -2.131053         2.139101
 H         2.458776        -1.937298         0.533617
 H         4.261358        -0.527208         3.418947
