19
Iteration:   964charge 0 multiplicity 1
 C         2.935625         2.065297         0.490869
 C         2.326047         0.841068         1.200884
 C         1.738091         0.676816         2.588955
 O         0.448715         0.184821         2.235644
 C         1.075637        -0.123435         0.827234
 C         0.122325        -0.096410        -0.345766
 C         1.976025        -1.374277         1.118822
 C         2.828365        -0.389535         1.958000
 O         4.076934        -0.592553         2.572938
 H         3.731056         2.478501         1.127296
 H         3.417684         1.864884        -0.536144
 H         2.139794         2.776667         0.197901
 H         2.046770         1.072880         3.673515
 H        -0.504832        -0.926218        -0.361060
 H        -0.349419         0.879421        -0.263116
 H         0.770389         0.051912        -1.260265
 H         1.423580        -2.245286         1.558430
 H         2.445645        -1.558354         0.201589
 H         3.812794        -1.145017         3.366781
