19
Iteration:  1830charge 0 multiplicity 1
 C         2.996936         1.833792         0.358505
 C         2.350675         0.776988         1.145978
 C         1.793869         0.756938         2.534804
 O         0.431328         0.313431         2.115489
 C         1.068102        -0.106974         0.916308
 C         0.084659        -0.137325        -0.288095
 C         1.929228        -1.353818         1.390273
 C         2.790067        -0.343264         2.067279
 O         4.079128        -0.549165         2.469913
 H         3.850851         2.254323         0.924957
 H         3.400368         1.457375        -0.591493
 H         2.294781         2.656098        -0.008086
 H         2.038176         1.501195         3.250048
 H        -0.859173        -0.677786        -0.188768
 H        -0.166395         0.957613        -0.534447
 H         0.576789        -0.681107        -1.134529
 H         1.370754        -2.092198         2.017445
 H         2.630282        -1.951952         0.699973
 H         3.902101        -0.840658         3.403803
