19
Iteration:  1601
 C         3.062918         1.837291         0.244941
 C         2.365589         0.807611         1.108772
 C         1.759796         0.676663         2.552205
 O         0.427533         0.373672         2.174091
 C         1.083577        -0.147730         0.915675
 C         0.058643        -0.149634        -0.249116
 C         1.920880        -1.363376         1.304704
 C         2.803246        -0.317566         1.989426
 O         4.030412        -0.599420         2.648840
 H         4.050815         2.074528         0.731284
 H         3.262456         1.270063        -0.688039
 H         2.459182         2.701818        -0.107930
 H         2.084396         1.448917         3.350283
 H        -0.796771        -0.806094        -0.050205
 H        -0.339101         0.880821        -0.333992
 H         0.364690        -0.528247        -1.266179
 H         1.393260        -2.030750         1.977691
 H         2.471826        -1.739173         0.350647
 H         4.431384         0.142466         3.184587
