19
Iteration:   472charge 0 multiplicity 1
 C         3.015051         1.995751         0.500366
 C         2.340170         0.776100         1.153716
 C         1.776060         0.627498         2.578751
 O         0.477064         0.269636         2.241015
 C         1.023129        -0.089290         0.905326
 C         0.065082        -0.038538        -0.389248
 C         1.897016        -1.438075         1.211567
 C         2.807611        -0.453513         1.932244
 O         4.051485        -0.499015         2.591653
 H         3.763094         2.239375         1.248794
 H         3.596150         1.652804        -0.392173
 H         2.404965         2.810100         0.318521
 H         2.026133         1.180329         3.511591
 H        -0.721693        -0.791681        -0.336775
 H        -0.343815         0.979313        -0.437818
 H         0.588671        -0.222916        -1.323734
 H         1.379913        -2.255159         1.795327
 H         2.313942        -1.782297         0.251188
 H         4.809461        -0.774890         2.047501
