19
Iteration:   616charge 0 multiplicity 1
 C         2.936439         1.970206         0.624373
 C         2.350289         0.757252         1.201595
 C         1.733761         0.655757         2.622966
 O         0.451912         0.444749         2.077044
 C         1.055746        -0.081948         0.870074
 C         0.184797        -0.160660        -0.329219
 C         1.919256        -1.365546         1.286948
 C         2.790826        -0.422650         1.984886
 O         4.053666        -0.667751         2.441879
 H         3.752846         2.474534         1.194660
 H         3.440792         1.835450        -0.428798
 H         2.062793         2.581467         0.496732
 H         1.838059         1.341874         3.439212
 H        -0.395480        -1.000983        -0.040081
 H        -0.465855         0.741933        -0.257237
 H         0.632216        -0.526508        -1.322264
 H         1.398489        -2.267348         1.774690
 H         2.521116        -1.675563         0.444905
 H         4.836450        -0.243147         1.964948
