19
Iteration:  1898charge 0 multiplicity 1
 C         3.037886         1.894726         0.280493
 C         2.234819         0.888183         1.054534
 C         1.795016         0.820694         2.538088
 O         0.474284         0.232279         2.166641
 C         1.075713        -0.099449         0.840839
 C         0.018649        -0.117119        -0.264702
 C         2.083273        -1.396632         1.389304
 C         2.813979        -0.269239         2.024113
 O         3.992244        -0.734846         2.624363
 H         3.832238         2.339275         0.854936
 H         3.456626         1.426313        -0.694692
 H         2.403854         2.692013        -0.086755
 H         1.732367         1.348295         3.463711
 H        -0.939062        -0.444560         0.155759
 H        -0.068963         0.930000        -0.681739
 H         0.275411        -0.821250        -1.068455
 H         1.433380        -2.094499         1.954368
 H         2.632122        -2.016682         0.686091
 H         4.432086        -0.053652         3.118676
