19
Iteration:  3624charge 0 multiplicity 1
 C         2.915689         1.784507         0.155113
 C         2.401924         0.743346         1.076121
 C         1.819098         0.841648         2.492545
 O         0.461969         0.465084         2.136538
 C         1.098015        -0.106643         0.890125
 C         0.099423        -0.164360        -0.266238
 C         1.831687        -1.306341         1.536261
 C         2.826126        -0.273611         2.088453
 O         4.090297        -0.723928         2.586234
 H         3.767868         2.303805         0.769137
 H         3.425051         1.288504        -0.704909
 H         2.156246         2.404558        -0.287667
 H         1.955957         1.517848         3.279424
 H        -0.735974        -0.895545        -0.289665
 H        -0.298581         0.798860        -0.460555
 H         0.750289        -0.536015        -1.159920
 H         1.385526        -2.149971         2.123477
 H         2.350377        -1.892171         0.721255
 H         3.875145        -0.988903         3.487065
