19
Iteration:  2133
 C         2.900875         1.901477         0.243269
 C         2.342591         0.778671         1.060003
 C         1.859487         0.840278         2.467085
 O         0.524754         0.382377         2.220748
 C         1.013451        -0.084234         0.947310
 C         0.184998        -0.215889        -0.329264
 C         1.921475        -1.319652         1.414738
 C         2.807994        -0.316382         1.930826
 O         3.976450        -0.732328         2.665671
 H         3.795282         2.170375         0.956358
 H         3.320139         1.777613        -0.782272
 H         2.115628         2.696087         0.135211
 H         2.089439         1.172078         3.409266
 H        -0.391509        -1.168266        -0.277827
 H        -0.369621         0.715928        -0.614963
 H         0.877030        -0.624297        -1.076453
 H         1.376809        -2.095290         2.022081
 H         2.102320        -1.922362         0.441241
 H         4.063303        -0.207873         3.508294
