19
Iteration:  4358charge 0 multiplicity 1
 C         3.184401         1.552477         0.174508
 C         2.304941         0.823608         1.143862
 C         1.840742         0.761971         2.549900
 O         0.517209         0.377871         2.277186
 C         0.949058        -0.059711         0.846690
 C        -0.058874        -0.008124        -0.184912
 C         1.798349        -1.273486         1.303494
 C         2.770194        -0.311048         2.118137
 O         4.150366        -0.639720         2.474324
 H         4.146110         1.109289         0.008336
 H         2.667003         1.548950        -0.767465
 H         3.479801         2.622807         0.345577
 H         2.135686         1.502495         3.303808
 H        -0.881216        -0.549316         0.120000
 H        -0.362144         0.972830        -0.479802
 H         0.285385        -0.513729        -1.077475
 H         1.208697        -2.105461         1.855938
 H         2.433740        -1.718981         0.513471
 H         4.109283        -0.578678         3.445738
