19
Iteration:  3374
 C         2.886958         1.802741         0.169167
 C         2.397175         0.757142         1.078255
 C         1.887818         0.855435         2.485931
 O         0.532083         0.464957         2.173816
 C         1.063642        -0.175097         0.876371
 C         0.122483        -0.151232        -0.297743
 C         1.885628        -1.395092         1.455066
 C         2.793612        -0.365838         2.034948
 O         3.990881        -0.690103         2.676298
 H         3.755163         2.199728         0.744156
 H         3.291376         1.571854        -0.822663
 H         2.079677         2.647835         0.130015
 H         2.246246         1.704767         3.148792
 H        -0.543795        -1.017098        -0.227721
 H        -0.405973         0.715717        -0.422578
 H         0.791507        -0.246738        -1.192387
 H         1.240754        -2.053251         2.121781
 H         2.339627        -1.736580         0.517844
 H         3.762023        -0.200321         3.489354
