19
Iteration:  4565
 C         3.126230         1.642595         0.112790
 C         2.348819         0.759602         1.174195
 C         1.760271         0.678344         2.609289
 O         0.422992         0.439490         2.215271
 C         1.002240        -0.118278         0.984607
 C         0.107092        -0.034930        -0.173503
 C         1.823969        -1.353544         1.389077
 C         2.789565        -0.371572         1.941622
 O         4.082015        -0.483090         2.464245
 H         2.687458         1.579029        -0.875612
 H         3.382420         2.668865         0.419045
 H         4.054855         1.050044         0.052594
 H         1.998345         1.321489         3.457797
 H        -0.948410        -0.259787        -0.167110
 H         0.166092         1.080083        -0.599212
 H         0.603383        -0.690424        -0.956654
 H         1.676082        -2.098871         2.101915
 H         2.269659        -1.796730         0.538847
 H         3.894688        -0.649967         3.409790
