19
Iteration:  3739charge 0 multiplicity 1
 C         3.237515         1.628372         0.236185
 C         2.317155         0.823892         1.085778
 C         1.838939         0.861733         2.503922
 O         0.488465         0.423612         2.204725
 C         1.008727        -0.128805         0.926032
 C         0.011162        -0.177186        -0.226297
 C         1.822351        -1.385275         1.356028
 C         2.720771        -0.269883         2.034827
 O         4.038461        -0.552790         2.519378
 H         3.087213         2.618487         0.592106
 H         4.308063         1.462685         0.330501
 H         3.036867         1.679682        -0.880418
 H         1.999218         1.522468         3.332550
 H        -0.713110        -1.070534         0.142438
 H        -0.636106         0.843007        -0.214637
 H         0.598053        -0.500401        -1.083313
 H         1.545909        -2.240327         1.970562
 H         2.214733        -1.872062         0.460319
 H         4.014461        -0.675803         3.472554
