19
Iteration:  1532charge 0 multiplicity 1
 C         3.002374         1.875511         0.238293
 C         2.364548         0.821846         1.034841
 C         1.782102         0.825394         2.486917
 O         0.447234         0.236692         2.214687
 C         0.951153        -0.169621         0.907873
 C         0.216134        -0.123335        -0.263976
 C         1.868017        -1.346364         1.454733
 C         2.798148        -0.294834         1.974086
 O         4.078539        -0.578676         2.606502
 H         3.881260         2.209056         0.911195
 H         3.473685         1.456366        -0.607342
 H         2.406054         2.877295        -0.024947
 H         1.731624         1.199846         3.449197
 H        -0.575542        -0.909259        -0.394073
 H        -0.324098         0.796188        -0.050421
 H         0.897424         0.072878        -1.059607
 H         1.314247        -2.052849         2.112538
 H         2.259742        -1.794675         0.511243
 H         4.101096        -1.518884         2.731282
