19
Iteration:   747charge 0 multiplicity 1
 C         2.903452         1.930175         0.418743
 C         2.283685         0.846786         1.181791
 C         1.741563         0.668228         2.573335
 O         0.397810         0.132136         2.266708
 C         1.027699        -0.107506         0.949349
 C         0.303231         0.043298        -0.334732
 C         1.973276        -1.343542         1.201361
 C         2.770055        -0.343796         2.003456
 O         4.079780        -0.619916         2.450014
 H         3.637189         2.504676         0.984402
 H         3.301183         1.452507        -0.550173
 H         2.175716         2.595239         0.148465
 H         1.822682         1.113452         3.552733
 H        -0.363720        -0.759218        -0.471541
 H        -0.129467         1.038266        -0.521815
 H         1.099019         0.006085        -1.149839
 H         1.562440        -2.214950         1.757725
 H         2.333760        -1.499876         0.189800
 H         4.247422        -0.837667         3.384581
