19
Iteration:  3016
 C         2.992506         1.804079         0.257085
 C         2.404626         0.713097         1.101800
 C         1.859106         0.844814         2.543160
 O         0.505912         0.471534         2.138984
 C         1.031368        -0.105552         0.926734
 C         0.090167        -0.175059        -0.267662
 C         1.818438        -1.391561         1.341441
 C         2.769254        -0.369675         2.089008
 O         4.047166        -0.604191         2.567776
 H         3.658476         2.372006         0.912641
 H         3.786933         1.447919        -0.599609
 H         2.200921         2.564162        -0.185592
 H         2.177482         1.597496         3.187353
 H        -0.506317        -1.089918        -0.174642
 H        -0.561711         0.689565        -0.379477
 H         0.762673        -0.320135        -1.162790
 H         1.107923        -2.102680         1.976789
 H         2.246516        -1.974332         0.457079
 H         4.061892        -0.971953         3.471408
