19
Iteration:  2828charge 0 multiplicity 1
 C         3.143008         1.833208         0.222693
 C         2.419932         0.809046         1.111265
 C         1.802274         0.796116         2.574137
 O         0.485138         0.409487         2.219251
 C         1.037127        -0.153458         0.901515
 C         0.058996        -0.174914        -0.230925
 C         1.798003        -1.345139         1.338131
 C         2.767264        -0.362070         2.046622
 O         4.007732        -0.590259         2.479604
 H         3.860790         2.167872         0.935294
 H         3.761206         1.311303        -0.520222
 H         2.532393         2.742876        -0.121416
 H         1.908808         1.428005         3.467088
 H        -0.556228        -1.091377         0.079929
 H        -0.488995         0.773946        -0.412679
 H         0.494194        -0.431884        -1.241371
 H         1.091295        -2.187429         1.878070
 H         2.365879        -1.826847         0.535577
 H         4.192600        -0.895406         3.363528
