19
Iteration:  1748
 C         3.017062         1.791765         0.203627
 C         2.366029         0.765936         1.162886
 C         1.814555         0.749187         2.559385
 O         0.492132         0.337504         2.107350
 C         1.037033        -0.061954         0.921477
 C         0.085908        -0.101006        -0.234771
 C         1.903913        -1.372457         1.300443
 C         2.800036        -0.380815         2.069447
 O         4.028802        -0.603920         2.675323
 H         3.935020         2.293554         0.491589
 H         3.204922         1.279246        -0.774056
 H         2.301243         2.570974         0.057361
 H         1.885376         1.473321         3.329310
 H        -0.369025        -1.131446        -0.163366
 H        -0.766712         0.563408        -0.244207
 H         0.599730         0.048008        -1.178400
 H         1.324007        -2.204292         1.795679
 H         2.382711        -1.731984         0.382189
 H         4.243835         0.334325         2.710193
