19
Iteration:  4548
 C         3.190555         1.514466         0.219053
 C         2.236999         0.795572         1.116414
 C         1.854116         0.797192         2.501819
 O         0.458787         0.325164         2.251655
 C         0.968389        -0.122697         0.921098
 C         0.022609         0.055975        -0.266952
 C         1.853698        -1.438506         1.382135
 C         2.782800        -0.326196         2.068618
 O         4.112160        -0.404531         2.480924
 H         2.794136         1.615944        -0.814664
 H         3.179099         2.561829         0.529080
 H         4.201858         0.995267         0.156750
 H         2.030846         1.356195         3.416159
 H        -0.897826        -0.345756         0.204684
 H         0.058671         1.070450        -0.479785
 H         0.337957        -0.482825        -1.123939
 H         1.119320        -2.095764         2.011085
 H         2.324470        -1.903764         0.446491
 H         4.173451        -0.877006         3.335890
