19
Iteration:  1312
 C         2.942187         1.878458         0.286208
 C         2.334917         0.828515         1.222479
 C         1.812734         0.641701         2.555186
 O         0.481513         0.320022         2.147085
 C         1.099059        -0.035431         0.895883
 C         0.079619        -0.095486        -0.272766
 C         1.961065        -1.363607         1.175625
 C         2.776086        -0.467008         2.050844
 O         4.063273        -0.575961         2.636275
 H         3.754889         2.458877         0.750312
 H         3.421090         1.440975        -0.579066
 H         2.048492         2.585959        -0.082507
 H         2.033090         1.241574         3.417045
 H        -0.337478        -1.107565        -0.354161
 H        -0.703473         0.699742        -0.174121
 H         0.529547         0.072421        -1.293980
 H         1.306835        -2.209579         1.642461
 H         2.531231        -1.560721         0.288594
 H         4.003115        -0.251014         3.603430
