19
Iteration:  4692charge 0 multiplicity 1
 C         3.171394         1.604451         0.188839
 C         2.347865         0.881713         1.154769
 C         1.763616         0.834777         2.529763
 O         0.412885         0.409464         2.198035
 C         1.015030        -0.173335         1.022040
 C         0.090276        -0.128269        -0.171158
 C         1.911458        -1.381929         1.352004
 C         2.754180        -0.261033         1.975906
 O         4.020851        -0.541920         2.455799
 H         2.836237         2.697463         0.024562
 H         4.230316         1.498847         0.668327
 H         3.264552         0.947763        -0.660746
 H         1.929652         1.243424         3.517754
 H        -0.783304        -0.862932        -0.176819
 H        -0.282663         0.830119        -0.360966
 H         0.661899        -0.351809        -1.128038
 H         1.416636        -2.294702         1.844830
 H         2.498213        -1.743718         0.472342
 H         4.004753        -0.425572         3.419951
