19
Iteration:    25charge 0 multiplicity 1
 C         2.950029         2.095457         0.633327
 C         2.385737         0.863928         1.253514
 C         1.752659         0.563852         2.607305
 O         0.478715         0.284949         2.112309
 C         1.122656        -0.019084         0.802346
 C         0.012149        -0.188483        -0.197764
 C         2.081148        -1.299559         0.981030
 C         2.779015        -0.467975         1.993040
 O         4.023342        -0.690014         2.497190
 H         3.705271         2.528846         1.251201
 H         3.381066         1.835967        -0.262131
 H         2.138473         2.917314         0.404259
 H         1.871000         1.081797         3.505726
 H        -0.335572        -1.264754        -0.188419
 H        -0.739179         0.516715         0.133698
 H         0.210923         0.016111        -1.223557
 H         1.414376        -2.246733         1.055761
 H         2.632359        -1.334854         0.052337
 H         4.060717        -0.231020         3.350183
