19
Iteration:  2519charge 0 multiplicity 1
 C         2.989563         1.823394         0.324935
 C         2.462121         0.754951         1.153747
 C         1.835773         0.797740         2.507387
 O         0.506784         0.468492         2.092903
 C         1.080712        -0.147529         0.887149
 C         0.040768        -0.197905        -0.244853
 C         1.846358        -1.352580         1.386922
 C         2.773326        -0.383913         2.016663
 O         3.997557        -0.570139         2.564501
 H         3.975728         2.186658         0.659065
 H         3.189661         1.399666        -0.723398
 H         2.417178         2.760309         0.369111
 H         2.146805         1.355167         3.411725
 H        -0.824254        -0.945325        -0.186016
 H        -0.414631         0.816993        -0.238417
 H         0.537589        -0.273954        -1.282353
 H         1.398546        -2.104261         1.963260
 H         2.441471        -1.825142         0.689942
 H         4.087740        -1.340565         3.142479
