19
Iteration:  4738charge 0 multiplicity 1
 C         3.164290         1.544175         0.247022
 C         2.344841         0.689598         1.154800
 C         1.776225         0.847562         2.528504
 O         0.528088         0.372815         2.226192
 C         0.966704        -0.181181         0.878567
 C         0.044389        -0.039708        -0.292227
 C         1.791845        -1.415117         1.326351
 C         2.731737        -0.402222         2.130504
 O         4.128806        -0.270528         2.517244
 H         3.149975         2.591573         0.688564
 H         4.151399         1.040448        -0.072735
 H         2.540665         1.507508        -0.608591
 H         1.933063         1.558386         3.350264
 H        -0.953973        -0.383571        -0.090519
 H        -0.026451         0.973479        -0.581352
 H         0.323315        -0.587029        -1.208241
 H         1.329409        -2.273417         1.994253
 H         2.219279        -1.801579         0.395185
 H         4.353190        -0.841814         3.269198
