19
Iteration:   186
 C         2.921668         1.983450         0.564696
 C         2.327688         0.855798         1.307625
 C         1.811657         0.539742         2.605448
 O         0.392749         0.137827         2.081373
 C         1.047567        -0.084502         0.857177
 C         0.052450         0.047906        -0.234072
 C         2.062969        -1.329850         1.007720
 C         2.842234        -0.392359         1.990076
 O         4.048002        -0.582954         2.604706
 H         3.826663         2.447072         1.011720
 H         3.200167         1.588751        -0.507253
 H         2.256857         2.838150         0.428094
 H         1.790199         1.066572         3.603582
 H        -0.824552        -0.484636         0.202593
 H        -0.181021         1.076838        -0.467837
 H         0.375601        -0.529816        -1.107036
 H         1.663965        -2.278340         1.322544
 H         2.641484        -1.562609         0.088747
 H         4.767665        -0.565231         1.980035
