19
Iteration:  1933
 C         2.933177         1.797500         0.288545
 C         2.362839         0.791871         1.122095
 C         1.791077         0.805374         2.562850
 O         0.519987         0.409921         2.140245
 C         1.077787        -0.116995         0.840641
 C         0.097502        -0.165778        -0.239556
 C         1.957590        -1.432419         1.218971
 C         2.814200        -0.327963         2.013728
 O         4.002654        -0.626640         2.677174
 H         3.733291         2.377525         0.710564
 H         3.305854         1.507704        -0.838863
 H         2.094705         2.444422         0.257778
 H         2.100865         1.160861         3.672746
 H        -0.715932        -0.867337         0.063796
 H        -0.421998         0.801668        -0.254879
 H         0.553202        -0.378635        -1.227639
 H         1.303181        -2.137911         1.802983
 H         2.534108        -1.746291         0.384407
 H         4.111933         0.009768         3.371784
