19
Iteration:  2217charge 0 multiplicity 1
 C         3.184674         1.691910         0.211484
 C         2.294761         0.799777         1.120976
 C         1.775499         0.785114         2.511758
 O         0.458299         0.269542         2.234701
 C         0.952633        -0.135230         0.920598
 C         0.112377        -0.050592        -0.279671
 C         1.924558        -1.436433         1.345737
 C         2.724301        -0.300884         2.022687
 O         4.028786        -0.383981         2.605188
 H         3.888547         2.269326         0.801769
 H         3.640999         1.222941        -0.716278
 H         2.544898         2.449682        -0.076676
 H         2.148328         1.202094         3.484010
 H        -0.766543        -0.738184        -0.154319
 H        -0.234569         0.938102        -0.586194
 H         0.756941        -0.458582        -1.066136
 H         1.548044        -2.286333         1.898148
 H         2.370665        -1.839498         0.419806
 H         4.045244        -1.236000         3.030208
