19
Iteration:  4530
 C         3.260424         1.534108         0.274263
 C         2.387764         0.653339         1.025737
 C         1.795472         0.828318         2.531044
 O         0.490883         0.294110         2.267586
 C         1.056607        -0.169048         0.868516
 C        -0.016680         0.045438        -0.154904
 C         1.833320        -1.376860         1.358879
 C         2.619368        -0.332491         2.131648
 O         4.072015        -0.356319         2.431471
 H         2.882278         1.478632        -0.819699
 H         3.355972         2.713723         0.459608
 H         4.245783         1.216733         0.226110
 H         1.920958         1.702557         3.189112
 H        -0.981071        -0.494474         0.142342
 H        -0.290482         1.145000        -0.342782
 H         0.145407        -0.332857        -1.274745
 H         1.056419        -2.101950         1.755098
 H         2.501462        -1.684920         0.564220
 H         4.290018        -0.912008         3.206444
