19
Iteration:  2919
 C         3.144542         1.681923         0.208129
 C         2.315122         0.840713         1.165725
 C         1.802272         0.743733         2.515919
 O         0.384240         0.399652         2.175593
 C         1.017577        -0.149790         0.946756
 C         0.044668        -0.102011        -0.238201
 C         1.917378        -1.292599         1.273380
 C         2.787644        -0.361964         2.071858
 O         4.098789        -0.533775         2.561160
 H         4.136426         1.842563         0.674161
 H         3.348830         1.182452        -0.675586
 H         2.823783         2.726668         0.085803
 H         1.912735         1.306071         3.397076
 H        -0.761709        -0.738787         0.192117
 H        -0.299832         0.915921        -0.506035
 H         0.356477        -0.643051        -1.190855
 H         1.321009        -2.034910         1.839487
 H         2.389995        -1.768206         0.373756
 H         4.059490        -1.028301         3.409139
