19
Iteration:  3593charge 0 multiplicity 1
 C         2.913597         1.858278         0.222954
 C         2.411172         0.691141         0.993586
 C         1.925350         0.829462         2.413931
 O         0.537132         0.572437         2.189220
 C         1.153076        -0.158181         0.895281
 C         0.091719        -0.223043        -0.253842
 C         1.741551        -1.489925         1.447589
 C         2.773476        -0.391461         2.014526
 O         4.024529        -0.536203         2.690567
 H         3.904156         2.019792         0.480927
 H         2.926828         1.668371        -0.844277
 H         2.449939         2.809224         0.486099
 H         2.136111         1.418938         3.258394
 H        -0.504342        -1.234583        -0.176230
 H        -0.521841         0.643758        -0.364503
 H         0.708382        -0.145681        -1.242688
 H         1.241381        -2.205207         2.106150
 H         2.212472        -1.957004         0.647547
 H         3.715458        -1.056963         3.474094
