19
Iteration:  3951charge 0 multiplicity 1
 C         3.169933         1.705330         0.284429
 C         2.359894         0.712177         1.081799
 C         1.905073         0.807853         2.508774
 O         0.485836         0.547828         2.221888
 C         0.935803        -0.118668         0.987979
 C         0.016227        -0.164447        -0.233002
 C         1.742416        -1.358024         1.413535
 C         2.749353        -0.419392         1.941894
 O         4.126759        -0.550950         2.469467
 H         2.945263         1.644001        -0.808499
 H         3.079249         2.764424         0.573615
 H         4.138743         1.429769         0.445976
 H         2.334448         1.508602         3.226607
 H        -0.746375        -0.944240        -0.202996
 H        -0.611394         0.781155        -0.281142
 H         0.539210        -0.386596        -1.220483
 H         1.250100        -1.910715         2.111104
 H         1.965145        -2.005682         0.594638
 H         4.129564        -0.873987         3.382260
