19
Iteration:  4287charge 0 multiplicity 1
 C         3.247587         1.725328         0.349084
 C         2.387449         0.737312         1.044902
 C         1.973511         0.792070         2.471519
 O         0.522944         0.491546         2.259329
 C         1.009871        -0.059468         0.842463
 C        -0.065637        -0.127554        -0.109186
 C         1.654881        -1.415212         1.424811
 C         2.742726        -0.417070         2.015972
 O         4.065867        -0.548652         2.405329
 H         4.292972         1.895567         0.739216
 H         3.307099         1.364993        -0.753383
 H         2.720596         2.696896         0.238172
 H         2.176470         1.607861         3.172990
 H        -0.814791        -1.044101        -0.057492
 H        -0.730821         0.830604        -0.122319
 H         0.373313        -0.218444        -1.124861
 H         0.884297        -1.933199         1.912606
 H         2.083369        -1.914206         0.560068
 H         4.254730        -1.263337         3.034508
