19
Iteration:  3057
 C         3.306150         1.711953         0.323906
 C         2.305824         0.850609         1.100502
 C         1.812597         0.820801         2.554219
 O         0.442557         0.374414         2.142805
 C         1.054631        -0.039907         0.899763
 C        -0.001327        -0.272864        -0.124794
 C         1.872837        -1.342301         1.315509
 C         2.727685        -0.342750         1.972473
 O         3.984450        -0.505578         2.460494
 H         4.039643         1.987118         1.012943
 H         3.826390         0.984265        -0.324617
 H         2.904209         2.721971         0.053459
 H         1.753533         1.461187         3.470405
 H        -0.614627        -1.152073         0.027342
 H        -0.465551         0.632614        -0.381065
 H         0.440656        -0.490323        -1.150343
 H         1.407597        -2.057107         1.920790
 H         2.386871        -1.835445         0.563624
 H         3.911526        -0.843039         3.356957
