19
Iteration:   162
 C         2.902127         2.001972         0.390897
 C         2.185710         0.897324         1.230441
 C         1.692124         0.557561         2.677028
 O         0.474087        -0.023268         2.321761
 C         1.041670        -0.153334         0.843772
 C         0.199059         0.160889        -0.391822
 C         2.042631        -1.262612         1.114803
 C         2.796461        -0.292971         2.003781
 O         4.081397        -0.695834         2.554463
 H         3.807419         2.309852         1.020571
 H         3.299500         1.672336        -0.668817
 H         2.428485         2.912500         0.267745
 H         1.795408         0.816502         3.682764
 H        -0.824451        -0.134513        -0.219583
 H         0.219232         1.290413        -0.470612
 H         0.634598        -0.377627        -1.328178
 H         1.518792        -2.110441         1.612685
 H         2.503913        -1.809568         0.192950
 H         4.773021        -0.063303         2.185399
