19
Iteration:  4888charge 0 multiplicity 1
 C         3.146244         1.631106         0.140777
 C         2.333812         0.753839         1.108574
 C         1.739753         0.848467         2.484174
 O         0.372243         0.350217         2.114512
 C         0.996958        -0.184966         0.966988
 C         0.134065        -0.057869        -0.211047
 C         1.968900        -1.383632         1.470967
 C         2.749664        -0.308967         2.062549
 O         4.049643        -0.429577         2.572617
 H         3.854717         1.055011        -0.526013
 H         2.398898         1.924935        -0.593653
 H         3.603457         2.435805         0.649822
 H         2.006379         1.403420         3.390514
 H        -0.792560        -0.793846        -0.150767
 H        -0.217301         0.964032        -0.309143
 H         0.842564        -0.394717        -1.090033
 H         1.660653        -2.233645         2.045619
 H         2.371792        -1.875076         0.573934
 H         4.050192        -0.855652         3.450135
