19
Iteration:  3539charge 0 multiplicity 1
 C         3.182849         1.655139         0.241153
 C         2.294238         0.835859         1.050940
 C         1.751649         0.868654         2.496603
 O         0.432016         0.347291         2.159485
 C         1.090267        -0.142130         0.926365
 C         0.107664        -0.192707        -0.156759
 C         1.967516        -1.360928         1.360571
 C         2.683782        -0.280989         2.159700
 O         4.004485        -0.552389         2.477418
 H         4.189553         1.442879         0.285814
 H         2.909080         1.395032        -0.802284
 H         2.993281         2.799471         0.268493
 H         1.828132         1.571575         3.273950
 H        -0.926615        -0.772490        -0.060419
 H        -0.143321         0.848213        -0.218494
 H         0.554750        -0.468592        -1.198444
 H         1.477873        -2.071838         2.021875
 H         2.543206        -1.630566         0.544718
 H         4.018772        -0.499456         3.460053
