19
Iteration:  1544
 C         3.035678         1.869094         0.217789
 C         2.211665         0.819675         1.056598
 C         1.764775         0.786709         2.476139
 O         0.446477         0.292381         2.225129
 C         1.066926        -0.143294         0.994459
 C         0.177711        -0.087339        -0.303809
 C         1.876392        -1.379390         1.382403
 C         2.809663        -0.326839         2.067471
 O         4.057366        -0.574971         2.634005
 H         3.927575         2.138519         0.896991
 H         3.423171         1.533424        -0.696398
 H         2.454871         2.864412        -0.001285
 H         2.117979         1.341330         3.266024
 H        -0.329637        -1.084614        -0.468127
 H        -0.541883         0.709307        -0.388956
 H         0.814120        -0.015753        -1.192930
 H         1.418976        -2.083614         2.099998
 H         2.332785        -2.003940         0.553213
 H         4.368323        -1.410326         2.213719
