19
Iteration:  2016charge 0 multiplicity 1
 C         3.062924         1.761932         0.266534
 C         2.318712         0.738068         1.215000
 C         1.640952         0.778812         2.545978
 O         0.397377         0.395168         2.126985
 C         1.054894        -0.086571         0.945616
 C         0.129502        -0.104653        -0.265391
 C         1.930718        -1.427832         1.346414
 C         2.793457        -0.364208         2.083050
 O         4.148378        -0.452251         2.493877
 H         3.988241         2.061061         0.818461
 H         3.352264         1.212504        -0.565101
 H         2.529708         2.729563        -0.124059
 H         1.755502         1.225745         3.513190
 H        -0.567349        -0.938068        -0.229294
 H        -0.385647         0.873060        -0.483560
 H         0.757336        -0.417465        -1.112463
 H         1.221575        -2.152360         1.728173
 H         2.483558        -2.005089         0.585657
 H         4.324617        -1.283344         3.000253
