19
Iteration:  3479
 C         3.203342         1.601769         0.235510
 C         2.356142         0.681513         1.063980
 C         1.821116         0.739220         2.580186
 O         0.472417         0.365546         2.192166
 C         1.019703        -0.051103         0.916994
 C         0.097145        -0.131809        -0.211342
 C         1.889094        -1.399182         1.335793
 C         2.684964        -0.377389         2.026498
 O         3.985286        -0.273610         2.515460
 H         3.993507         2.034244         0.959975
 H         3.642430         1.093243        -0.604418
 H         2.592969         2.338725        -0.063015
 H         1.784141         1.290712         3.537731
 H        -0.882760        -0.354885         0.076647
 H         0.042168         1.011067        -0.541066
 H         0.408629        -0.716687        -1.068251
 H         1.356750        -2.067711         1.953049
 H         2.049238        -2.082247         0.470125
 H         4.198043        -0.835431         3.292323
