19
Iteration:  2419charge 0 multiplicity 1
 C         3.104398         1.705461         0.245092
 C         2.338160         0.728736         1.153255
 C         1.832720         0.766887         2.578537
 O         0.423357         0.321394         2.180297
 C         1.000780        -0.080747         0.913705
 C         0.061376        -0.023098        -0.284896
 C         1.957689        -1.438041         1.316683
 C         2.742303        -0.369648         2.064030
 O         4.053748        -0.423404         2.533169
 H         3.967399         2.176323         0.704750
 H         3.678724         1.043921        -0.420715
 H         2.503661         2.378151        -0.278734
 H         1.911954         1.402401         3.472958
 H        -0.849249        -0.580047         0.073603
 H        -0.384873         0.968829        -0.587029
 H         0.453893        -0.527050        -1.247113
 H         1.547817        -2.226624         1.956923
 H         2.562078        -1.641521         0.436413
 H         3.891837        -0.904162         3.347154
