19
Iteration:  1302
 C         2.978690         1.848871         0.302730
 C         2.320699         0.854714         1.115904
 C         1.826184         0.637252         2.558545
 O         0.458831         0.267099         2.210115
 C         1.064130        -0.039709         0.825179
 C         0.087057        -0.044696        -0.259046
 C         1.981939        -1.374764         1.233579
 C         2.818625        -0.367167         1.983897
 O         4.000869        -0.613899         2.670013
 H         3.706783         2.469590         0.906116
 H         3.472145         1.490184        -0.604500
 H         2.183129         2.708407        -0.032400
 H         2.112704         0.867424         3.610983
 H        -0.386324        -1.062608        -0.153909
 H        -0.738776         0.726922        -0.246619
 H         0.725171        -0.026160        -1.180487
 H         1.597025        -2.390227         1.697192
 H         2.441783        -1.735964         0.307899
 H         3.970451         0.247751         3.196922
