19
Iteration:  3419
 C         2.961793         1.886104         0.163761
 C         2.418818         0.826820         1.081690
 C         1.890531         0.836865         2.516772
 O         0.516668         0.464858         2.158922
 C         1.095215        -0.081709         0.931666
 C         0.161179        -0.255542        -0.258165
 C         1.844030        -1.413575         1.402216
 C         2.776486        -0.332684         2.057992
 O         3.931364        -0.743324         2.607912
 H         3.430807         2.769129         0.501434
 H         3.680235         1.553778        -0.633925
 H         2.066068         2.215600        -0.556401
 H         1.936053         1.531097         3.406746
 H        -0.501532        -1.121433         0.001295
 H        -0.421962         0.544554        -0.130680
 H         0.590590        -0.331213        -1.271968
 H         1.329786        -1.979813         2.271070
 H         2.334741        -1.811576         0.539591
 H         3.981709        -0.584859         3.562020
