19
Iteration:  1293
 C         3.016618         1.910090         0.309703
 C         2.312162         0.824477         1.080360
 C         1.814920         0.615825         2.562506
 O         0.483434         0.226500         2.244599
 C         1.048560        -0.116765         0.901589
 C         0.109414        -0.051180        -0.271740
 C         1.993540        -1.357676         1.211165
 C         2.797423        -0.309615         1.883599
 O         3.935570        -0.601495         2.701000
 H         3.793876         2.342647         1.028387
 H         3.489419         1.402642        -0.574633
 H         2.329702         2.697654        -0.087663
 H         1.882647         1.091225         3.619616
 H        -0.639326        -0.921208        -0.240613
 H        -0.513032         0.890968        -0.224748
 H         0.597027        -0.068751        -1.251040
 H         1.577525        -2.088909         1.945966
 H         2.494130        -1.768850         0.304210
 H         4.535640         0.157660         2.938749
