19
Iteration:  2875
 C         3.392475         1.737009         0.445198
 C         2.319120         0.794008         1.028341
 C         1.757270         0.794819         2.458531
 O         0.433851         0.438772         2.185674
 C         0.995223        -0.173083         0.882145
 C        -0.047564        -0.236832        -0.148552
 C         1.798990        -1.414040         1.352403
 C         2.695239        -0.347256         2.013761
 O         4.093280        -0.441128         2.417059
 H         4.243937         2.038162         1.146648
 H         3.794088         1.407710        -0.503492
 H         2.794693         2.714971         0.294355
 H         2.038923         1.379265         3.356081
 H        -0.775950        -1.086384        -0.043553
 H        -0.404918         0.824808        -0.148696
 H         0.430819        -0.233225        -1.214890
 H         1.355616        -2.185294         1.954942
 H         2.374696        -1.862439         0.521735
 H         4.146704        -0.881420         3.311542
