19
Iteration:   312charge 0 multiplicity 1
 C         2.885212         1.875715         0.397743
 C         2.282054         0.816401         1.177679
 C         1.788841         0.509322         2.620079
 O         0.447749         0.099904         2.251401
 C         1.021143        -0.122225         0.973134
 C         0.246712         0.194749        -0.308484
 C         1.946571        -1.401037         1.103284
 C         2.819156        -0.379038         1.989741
 O         3.997693        -0.482510         2.588652
 H         3.794238         2.365204         0.855773
 H         3.274558         1.560502        -0.544152
 H         2.203852         2.812001         0.134027
 H         1.959744         0.903350         3.576045
 H        -0.569096        -0.470519        -0.512609
 H        -0.117754         1.270206        -0.365550
 H         0.882115         0.013535        -1.243904
 H         1.587979        -2.283458         1.665547
 H         2.526546        -1.573555         0.222743
 H         4.812496        -0.487916         2.056906
