19
Iteration:   975
 C         2.902125         2.042845         0.520599
 C         2.384178         0.834269         1.220149
 C         1.832933         0.612884         2.554841
 O         0.413166         0.230830         2.102913
 C         1.050994        -0.106030         0.906197
 C         0.107918        -0.064480        -0.313792
 C         2.013101        -1.349392         1.138222
 C         2.789885        -0.377452         2.016962
 O         4.036785        -0.584524         2.564419
 H         3.689997         2.548548         1.119227
 H         3.393617         1.683042        -0.450225
 H         2.146595         2.835238         0.408606
 H         2.035930         1.232306         3.561972
 H        -0.507669        -0.905369        -0.181471
 H        -0.638242         0.715251        -0.392622
 H         0.573213        -0.321499        -1.301469
 H         1.847393        -2.377779         1.511782
 H         2.574067        -1.489770         0.265080
 H         4.078513        -1.446392         2.973134
