19
Iteration:  3730
 C         3.298684         1.667692         0.237644
 C         2.302770         0.806755         1.076486
 C         1.817306         0.858641         2.471444
 O         0.472002         0.390388         2.190011
 C         1.020491        -0.170832         0.877700
 C         0.035112        -0.119003        -0.125351
 C         1.866054        -1.425973         1.393537
 C         2.715294        -0.319437         2.069253
 O         3.999177        -0.499506         2.472748
 H         3.288701         2.752571         0.414809
 H         4.247850         1.181910         0.328784
 H         2.912542         1.585225        -0.739786
 H         1.777036         1.505365         3.280000
 H        -0.696564        -0.865515         0.228133
 H        -0.489221         0.903611        -0.247884
 H         0.262047        -0.385602        -1.145271
 H         1.311106        -2.105624         1.951889
 H         2.588752        -1.786590         0.605123
 H         3.957152        -0.681113         3.416811
