19
Iteration:   183charge 0 multiplicity 1
 C         2.929763         1.995441         0.532682
 C         2.313386         0.866865         1.296412
 C         1.807165         0.522925         2.606636
 O         0.361946         0.111513         2.112854
 C         1.057900        -0.069940         0.866194
 C         0.046183         0.068034        -0.255083
 C         2.060847        -1.324837         1.048356
 C         2.849365        -0.376664         1.987135
 O         4.065572        -0.608387         2.602029
 H         3.863565         2.424145         0.997821
 H         3.179275         1.595706        -0.491218
 H         2.273651         2.799259         0.388036
 H         1.725324         1.031936         3.488148
 H        -0.868757        -0.383394         0.123008
 H        -0.197627         1.140371        -0.539657
 H         0.477344        -0.534255        -1.142441
 H         1.759834        -2.374946         1.359059
 H         2.689109        -1.537082         0.082222
 H         4.844708        -0.478065         2.027689
