19
Iteration:  4317charge 0 multiplicity 1
 C         3.363623         1.580882         0.308672
 C         2.302564         0.811882         1.056628
 C         1.891943         0.771416         2.524849
 O         0.444563         0.518388         2.240764
 C         0.948784        -0.084984         0.930205
 C        -0.162205        -0.141476        -0.106936
 C         1.839155        -1.355635         1.365208
 C         2.758585        -0.369775         1.954841
 O         4.094243        -0.528092         2.402376
 H         4.399148         1.270131         0.482880
 H         3.106520         1.483210        -0.729961
 H         3.377609         2.702321         0.734083
 H         2.114166         1.388039         3.404674
 H        -0.893270        -1.022761        -0.109010
 H        -0.605923         0.919225        -0.195611
 H         0.304752        -0.131583        -1.088597
 H         1.193424        -2.171267         1.854582
 H         2.225749        -1.853033         0.435376
 H         4.213448        -1.038867         3.225313
