19
Iteration:  4862
 C         3.031058         1.756529         0.207791
 C         2.305794         0.794807         1.018222
 C         1.889939         0.827577         2.470602
 O         0.529858         0.369749         2.183174
 C         1.085485        -0.186963         0.780139
 C         0.113175        -0.199150        -0.280075
 C         1.735349        -1.361201         1.435610
 C         2.766208        -0.269934         2.156304
 O         4.078355        -0.549832         2.649431
 H         3.951067         1.429582        -0.175196
 H         2.355031         1.811923        -0.623992
 H         3.085743         2.768060         0.746183
 H         2.082190         1.759629         3.012286
 H        -0.529333        -0.958681        -0.107357
 H        -0.414691         0.754543        -0.203796
 H         0.509798        -0.268523        -1.219901
 H         1.068534        -2.086858         2.010618
 H         2.319236        -2.164937         0.852712
 H         4.090286        -0.574578         3.632663
