19
Iteration:  3150charge 0 multiplicity 1
 C         2.881919         1.722391         0.136736
 C         2.330610         0.752092         1.119204
 C         1.815512         0.823691         2.556321
 O         0.480608         0.385912         2.220513
 C         1.034317        -0.116267         0.939177
 C         0.170447        -0.084233        -0.359277
 C         1.889275        -1.300225         1.382854
 C         2.822576        -0.343482         2.065378
 O         4.055986        -0.636466         2.605761
 H         3.963158         2.016749         0.485256
 H         3.118163         1.072992        -0.748632
 H         2.377852         2.640027         0.107905
 H         2.037639         1.550931         3.411313
 H        -0.739800        -0.640696        -0.364430
 H         0.148743         1.000173        -0.581374
 H         0.730809        -0.422337        -1.167365
 H         1.276572        -2.016651         1.999630
 H         2.537263        -1.885966         0.682848
 H         3.993987        -0.826332         3.582301
