19
Iteration:   659
 C         3.108193         1.983447         0.478016
 C         2.317458         0.890913         1.099429
 C         1.804010         0.664414         2.594622
 O         0.448114         0.158083         2.205576
 C         1.014963        -0.084053         0.882471
 C         0.017928        -0.136150        -0.273959
 C         1.974094        -1.324336         1.134685
 C         2.838389        -0.271502         1.945663
 O         3.946640        -0.682543         2.636544
 H         3.946079         2.256441         1.168620
 H         3.608627         1.781726        -0.584244
 H         2.541407         2.859140         0.376764
 H         1.806827         1.265911         3.485075
 H        -0.751535        -0.836814        -0.061623
 H        -0.331990         0.868809        -0.580281
 H         0.589302        -0.519743        -1.207335
 H         1.519423        -2.169813         1.730854
 H         2.506401        -1.728101         0.295041
 H         4.707716        -0.143481         2.288363
