19
Iteration:  3373charge 0 multiplicity 1
 C         2.881814         1.801205         0.171255
 C         2.395833         0.761327         1.079209
 C         1.886779         0.852434         2.480962
 O         0.534312         0.463926         2.167037
 C         1.068976        -0.177203         0.879606
 C         0.121524        -0.150088        -0.292872
 C         1.883920        -1.404566         1.459446
 C         2.788049        -0.359412         2.039561
 O         3.990878        -0.688338         2.670954
 H         3.810916         2.195814         0.750870
 H         3.280451         1.580142        -0.822270
 H         2.113201         2.652025         0.108042
 H         2.214540         1.684442         3.154687
 H        -0.546525        -1.000477        -0.232334
 H        -0.420458         0.770459        -0.402024
 H         0.802828        -0.262060        -1.183776
 H         1.248172        -2.032767         2.100852
 H         2.376324        -1.759418         0.528256
 H         3.765983        -0.201903         3.495937
