19
Iteration:   199charge 0 multiplicity 1
 C         2.937496         2.005866         0.636134
 C         2.344982         0.813591         1.260286
 C         1.731909         0.557773         2.605612
 O         0.534066         0.235058         2.103154
 C         1.198073        -0.098088         0.784917
 C         0.028651        -0.076366        -0.192452
 C         2.000144        -1.331169         0.948715
 C         2.752900        -0.448412         1.946560
 O         4.006235        -0.506388         2.621550
 H         3.772499         2.339936         1.229252
 H         3.286376         1.793427        -0.406844
 H         2.070958         2.782795         0.569064
 H         1.987475         0.939378         3.685102
 H        -0.847433        -0.585289         0.290847
 H        -0.352319         0.913171        -0.248380
 H         0.223796        -0.431387        -1.153335
 H         1.491637        -2.216886         1.279691
 H         2.508936        -1.465985         0.056790
 H         4.653812        -0.883783         1.937543
