19
Iteration:  1197
 C         2.960417         2.009632         0.517178
 C         2.281037         0.843459         1.132438
 C         1.831981         0.692717         2.509072
 O         0.521141         0.192692         2.209774
 C         0.961687        -0.134019         0.873704
 C         0.192322        -0.142663        -0.394225
 C         1.942546        -1.320919         1.322479
 C         2.780805        -0.319941         1.995455
 O         3.967890        -0.625934         2.581083
 H         3.843549         2.239911         1.149936
 H         3.272632         1.570065        -0.482246
 H         2.386130         2.842687         0.334524
 H         2.092773         1.361068         3.432468
 H        -0.732643        -0.715946        -0.237236
 H        -0.070214         0.871285        -0.593087
 H         0.684057        -0.569407        -1.197479
 H         1.378130        -2.011021         1.832345
 H         2.510180        -1.666485         0.406013
 H         4.761627        -0.610316         1.945612
