19
Iteration:  1708charge 0 multiplicity 1
 C         3.048634         1.812971         0.273231
 C         2.280860         0.828008         1.073957
 C         1.769580         0.829095         2.500850
 O         0.478224         0.268197         2.213772
 C         1.003071        -0.124592         0.978892
 C         0.162416        -0.122744        -0.296743
 C         1.860027        -1.391545         1.437236
 C         2.759219        -0.300750         1.990581
 O         4.092011        -0.596052         2.518649
 H         3.921542         2.248516         0.878712
 H         3.459468         1.343002        -0.574661
 H         2.385901         2.703195        -0.084126
 H         1.812021         1.835088         3.076570
 H        -0.686829        -0.851370        -0.358526
 H        -0.169600         0.908565        -0.437632
 H         0.860401        -0.320955        -1.152106
 H         1.552290        -2.231380         2.061399
 H         2.419791        -1.939609         0.618952
 H         4.080496        -0.890394         3.467186
