19
Iteration:  1465charge 0 multiplicity 1
 C         3.084704         1.875868         0.306583
 C         2.310705         0.862948         1.138934
 C         1.798319         0.727423         2.501821
 O         0.457998         0.293611         2.207654
 C         1.078641        -0.122322         0.927383
 C         0.024350        -0.132368        -0.274126
 C         1.971862        -1.384165         1.264171
 C         2.815095        -0.364897         1.941072
 O         3.958760        -0.606680         2.691091
 H         3.857900         2.404040         0.876478
 H         3.544092         1.387517        -0.556136
 H         2.369695         2.718455        -0.065193
 H         1.982975         1.244789         3.500467
 H        -0.972826        -0.335088         0.130050
 H        -0.104915         0.793656        -0.858401
 H         0.301009        -0.868494        -1.017432
 H         1.597141        -2.234575         1.909365
 H         2.522201        -1.799389         0.454832
 H         4.592742         0.068771         2.294833
