19
Iteration:  2561
 C         2.849733         1.861326         0.075908
 C         2.372097         0.794236         1.118381
 C         1.900193         0.788971         2.501227
 O         0.492454         0.353745         2.240647
 C         1.049292        -0.137957         0.968538
 C         0.239922        -0.037485        -0.310761
 C         1.872835        -1.360133         1.382002
 C         2.814520        -0.361321         2.051434
 O         4.005935        -0.711328         2.647353
 H         3.802704         2.440597         0.474438
 H         2.963206         1.311246        -0.952308
 H         2.000643         2.529018         0.121564
 H         2.037615         1.298266         3.457884
 H        -0.743410        -0.489378        -0.317858
 H         0.039250         1.000148        -0.535426
 H         0.845369        -0.475415        -1.156262
 H         1.319387        -2.009344         2.018089
 H         2.167069        -1.665013         0.388074
 H         3.784730        -0.868473         3.568929
