19
Iteration:   784
 C         2.891450         2.049094         0.575449
 C         2.333178         0.827574         1.158308
 C         1.792491         0.620247         2.553975
 O         0.439770         0.224275         2.208756
 C         1.108365        -0.078334         0.815507
 C         0.187337        -0.057703        -0.389888
 C         1.956382        -1.362438         1.268552
 C         2.826597        -0.321195         1.968963
 O         4.000844        -0.723446         2.521774
 H         3.749852         2.488441         1.138545
 H         3.344022         1.944802        -0.393627
 H         1.962816         2.804125         0.420899
 H         2.171184         1.054151         3.538367
 H        -0.563036        -0.952214        -0.247146
 H        -0.525863         0.774236        -0.514107
 H         0.743935        -0.369052        -1.277903
 H         1.570124        -2.136132         1.940090
 H         2.203008        -1.955006         0.320419
 H         4.510847         0.121345         2.685317
