19
Iteration:  4847
 C         2.972979         1.863037         0.179901
 C         2.377959         0.739704         1.050576
 C         1.896809         0.809417         2.429461
 O         0.493774         0.474467         2.122165
 C         1.075650        -0.118799         0.936526
 C         0.062208        -0.254518        -0.297023
 C         1.850150        -1.370900         1.494581
 C         2.781978        -0.416428         2.050873
 O         4.034535        -0.595072         2.670556
 H         4.071944         1.642512        -0.024860
 H         2.560807         2.045715        -0.892887
 H         3.002504         2.823526         0.696604
 H         2.104877         1.426417         3.305616
 H        -0.603036        -1.187822        -0.190541
 H        -0.641678         0.644791        -0.341860
 H         0.725759        -0.375692        -1.190448
 H         1.188028        -1.895771         2.221307
 H         2.279894        -1.894921         0.674670
 H         4.016016        -0.390104         3.628819
