19
Iteration:  3175charge 0 multiplicity 1
 C         2.850150         1.863262         0.076267
 C         2.374111         0.764381         1.116888
 C         1.792754         0.881567         2.489854
 O         0.451205         0.457126         2.143811
 C         1.118378        -0.097752         0.965816
 C         0.230147        -0.103815        -0.224824
 C         1.908334        -1.378187         1.416231
 C         2.800927        -0.373587         2.081788
 O         4.008221        -0.764065         2.612096
 H         3.755868         2.471285         0.514136
 H         3.251736         1.308786        -0.735167
 H         2.036038         2.536399        -0.217793
 H         1.996248         1.489386         3.454799
 H        -0.469484        -0.982957        -0.168504
 H        -0.285841         0.850725        -0.327601
 H         0.823758        -0.343603        -1.151177
 H         1.443462        -2.235267         2.055984
 H         2.542668        -1.883960         0.577730
 H         4.024052        -1.041143         3.549346
