19
Iteration:  1385charge 0 multiplicity 1
 C         2.971830         1.891769         0.389123
 C         2.363061         0.723211         1.162261
 C         1.818898         0.725878         2.514499
 O         0.460429         0.299434         2.217226
 C         1.053675        -0.035464         0.909368
 C         0.168164        -0.124645        -0.339607
 C         1.857588        -1.400539         1.295784
 C         2.781572        -0.386830         2.019667
 O         4.045467        -0.579208         2.542972
 H         3.859676         2.269387         0.877956
 H         3.224881         1.575656        -0.702212
 H         2.325795         2.716536         0.246102
 H         1.943744         1.219984         3.429828
 H        -0.516055        -0.919856        -0.150517
 H        -0.397384         0.768214        -0.597504
 H         0.802741        -0.387606        -1.214055
 H         1.424689        -2.065418         2.012390
 H         2.251404        -1.906381         0.426677
 H         4.176475         0.404182         2.808485
