19
Iteration:   169charge 0 multiplicity 1
 C         2.942246         2.005981         0.416470
 C         2.222741         0.895393         1.201757
 C         1.618638         0.505644         2.669527
 O         0.439704         0.027276         2.277171
 C         1.050052        -0.090455         0.852056
 C         0.127152         0.132745        -0.358161
 C         2.084250        -1.281462         1.136920
 C         2.836930        -0.351732         1.960070
 O         4.114229        -0.692318         2.597436
 H         3.823882         2.300068         0.966449
 H         3.267087         1.710672        -0.523057
 H         2.302298         2.964241         0.302439
 H         1.964919         0.926393         3.651198
 H        -0.895003        -0.269464        -0.212054
 H         0.127041         1.219259        -0.586625
 H         0.412664        -0.350126        -1.304469
 H         1.633447        -2.184775         1.668609
 H         2.576415        -1.415176         0.157007
 H         4.702923        -0.148228         2.065035
