19
Iteration:  3392
 C         2.871940         1.846075         0.196786
 C         2.397656         0.754724         1.001410
 C         1.934202         0.759992         2.401507
 O         0.505746         0.522082         2.261798
 C         1.007757        -0.034387         0.959481
 C         0.174761        -0.268202        -0.329257
 C         1.799487        -1.346614         1.342147
 C         2.838335        -0.365600         2.044278
 O         4.017658        -0.720794         2.751711
 H         3.660005         2.647032         0.600343
 H         3.384211         1.511374        -0.720950
 H         2.119695         2.365654        -0.279861
 H         2.098507         1.383804         3.231724
 H        -0.375353        -1.202349        -0.261474
 H        -0.649154         0.665029        -0.364507
 H         0.879253        -0.320389        -1.191444
 H         1.247925        -1.949882         2.008325
 H         2.299992        -1.813088         0.430086
 H         4.041580        -0.334504         3.652865
