19
Iteration:  3321
 C         3.157424         1.589143         0.256884
 C         2.237489         0.773145         1.161917
 C         1.811892         0.812284         2.528404
 O         0.479424         0.339106         2.175826
 C         1.005870        -0.146666         0.877628
 C         0.083488        -0.086350        -0.307101
 C         1.922230        -1.359767         1.338264
 C         2.687346        -0.348984         2.073832
 O         4.099719        -0.366059         2.589121
 H         4.143173         1.520898         0.496027
 H         3.026872         1.317463        -0.814329
 H         2.826428         2.699746         0.169023
 H         2.108986         1.433195         3.429846
 H        -0.958970        -0.449061        -0.021953
 H         0.032225         0.931390        -0.663989
 H         0.482272        -0.867440        -1.016517
 H         1.361412        -2.141376         2.043431
 H         2.208347        -1.840382         0.388506
 H         4.002004        -1.029431         3.305178
