19
Iteration:  4602charge 0 multiplicity 1
 C         2.884199         1.752339         0.209299
 C         2.384354         0.780584         1.117862
 C         1.906292         0.841054         2.497573
 O         0.597586         0.459141         2.212562
 C         1.035390        -0.103388         0.881243
 C         0.071106        -0.158055        -0.301840
 C         1.801206        -1.304418         1.422653
 C         2.801696        -0.337524         2.102051
 O         4.030681        -0.726021         2.563612
 H         2.334647         1.934231        -0.712683
 H         3.063111         2.734404         0.627583
 H         4.013637         1.547154        -0.091585
 H         2.023505         1.767511         3.073809
 H        -0.720256        -0.876928         0.026743
 H        -0.157450         0.886917        -0.597935
 H         0.671788        -0.569546        -1.077125
 H         1.086565        -2.027816         1.861759
 H         2.295478        -1.848657         0.539534
 H         4.098111        -0.997326         3.498682
