19
Iteration:  1461
 C         3.095976         1.890583         0.283027
 C         2.251515         0.855911         1.140481
 C         1.794195         0.739399         2.509885
 O         0.492653         0.263368         2.201394
 C         1.056865        -0.139749         0.866283
 C         0.033279        -0.119750        -0.263205
 C         1.966288        -1.360961         1.315647
 C         2.815710        -0.335646         1.960560
 O         3.951085        -0.611860         2.689046
 H         3.804599         2.385667         0.954976
 H         3.617387         1.449878        -0.698595
 H         2.520981         2.733167        -0.021902
 H         2.037203         1.096114         3.543929
 H        -0.914479        -0.301500         0.223502
 H        -0.075162         0.813483        -0.847336
 H         0.349746        -0.932371        -0.972885
 H         1.566174        -2.203109         1.867611
 H         2.557382        -1.753107         0.455594
 H         4.630236        -0.148174         2.214297
