19
Iteration:  1768charge 0 multiplicity 1
 C         2.964754         1.778974         0.225254
 C         2.365610         0.785852         1.155659
 C         1.820400         0.716360         2.527297
 O         0.444992         0.467465         2.202930
 C         1.057023        -0.084302         0.841370
 C         0.097931        -0.191446        -0.248910
 C         1.934285        -1.418097         1.193073
 C         2.752477        -0.393614         2.060972
 O         4.045598        -0.548324         2.777736
 H         3.884731         2.121625         0.640485
 H         3.224926         1.292931        -0.824941
 H         2.332209         2.604916         0.062782
 H         2.148523         1.186861         3.380436
 H        -0.505157        -1.088865        -0.256823
 H        -0.566681         0.631431         0.020958
 H         0.556756         0.046303        -1.197210
 H         1.314738        -2.202427         1.628864
 H         2.454461        -1.590990         0.307481
 H         4.760250        -0.105433         2.215665
