19
Iteration:  2646
 C         3.280348         1.707628         0.373036
 C         2.353428         0.791295         1.047759
 C         1.793615         0.802441         2.544881
 O         0.486367         0.349293         2.183510
 C         1.053640        -0.133224         0.891158
 C        -0.066949        -0.179906        -0.153638
 C         1.850254        -1.353772         1.319396
 C         2.761589        -0.290412         1.975196
 O         3.996025        -0.470711         2.465933
 H         3.973425         1.949686         1.228395
 H         3.883490         1.361339        -0.388282
 H         2.868947         2.569835        -0.012745
 H         1.816799         1.436155         3.409791
 H        -0.740337        -0.970438        -0.015790
 H        -0.545837         0.759857        -0.308598
 H         0.492468        -0.403757        -1.086268
 H         1.263197        -2.176537         1.905313
 H         2.494201        -1.636899         0.418816
 H         3.830030        -1.140396         3.188215
