19
Iteration:  2815charge 0 multiplicity 1
 C         3.114613         1.825107         0.177600
 C         2.318275         0.841462         1.106786
 C         1.821003         0.803579         2.507809
 O         0.463882         0.330912         2.180172
 C         1.038348        -0.066843         0.955682
 C         0.124766        -0.110785        -0.203699
 C         1.887300        -1.356270         1.368125
 C         2.735476        -0.345830         2.064212
 O         4.029033        -0.672975         2.533371
 H         3.830744         2.395755         0.620220
 H         3.510180         1.429172        -0.797725
 H         2.362113         2.495346        -0.193909
 H         1.952601         1.463363         3.308585
 H        -0.756315        -0.749505        -0.054941
 H        -0.335122         0.873789        -0.292259
 H         0.662275        -0.399396        -1.059312
 H         1.495805        -2.165747         2.189442
 H         2.401614        -1.814054         0.490869
 H         3.880321        -1.213254         3.363886
