19
Iteration:  2195
 C         2.957897         1.731380         0.231421
 C         2.299082         0.738317         1.164573
 C         1.763596         0.690580         2.552527
 O         0.407007         0.413358         2.131472
 C         1.107720        -0.160047         0.883740
 C         0.175707        -0.064901        -0.289555
 C         1.915422        -1.369140         1.404433
 C         2.845443        -0.343224         2.112896
 O         4.063906        -0.473902         2.554134
 H         3.826755         2.157974         0.705515
 H         3.269223         1.143927        -0.689080
 H         2.432778         2.584176        -0.099746
 H         1.956172         1.611410         3.214192
 H        -0.652365        -0.825538        -0.289929
 H        -0.297602         0.933114        -0.226730
 H         0.701190        -0.089279        -1.256060
 H         1.276036        -2.023785         2.002860
 H         2.278703        -1.975584         0.565750
 H         4.263657        -1.290974         3.096301
