19
Iteration:   105charge 0 multiplicity 1
 C         2.790799         2.022779         0.593135
 C         2.290341         0.817995         1.306739
 C         1.757115         0.507631         2.643727
 O         0.402068         0.309979         2.112450
 C         1.023371        -0.098674         0.821600
 C         0.149675         0.052604        -0.371365
 C         1.978791        -1.396747         1.160364
 C         2.862112        -0.478388         1.996179
 O         4.237138        -0.684720         2.498635
 H         3.644434         2.527818         1.109908
 H         3.228425         1.684894        -0.399770
 H         1.948306         2.738687         0.408255
 H         1.916199         1.215378         3.525966
 H        -0.420723        -0.920662        -0.461444
 H        -0.649759         0.846189        -0.168772
 H         0.824264         0.397441        -1.234141
 H         1.533625        -2.335983         1.730090
 H         2.369583        -1.595169         0.081146
 H         4.522923         0.220536         2.538183
