19
Iteration:  1927
 C         2.956631         1.841234         0.254390
 C         2.384870         0.756925         1.099868
 C         1.785082         0.829311         2.544229
 O         0.462799         0.367262         2.136409
 C         1.099724        -0.152480         0.852779
 C         0.079670        -0.160511        -0.222091
 C         1.977987        -1.336220         1.274067
 C         2.834209        -0.348645         2.062130
 O         4.016635        -0.671826         2.665153
 H         3.845610         2.307461         0.773779
 H         3.258507         1.613106        -0.691133
 H         2.096155         2.574405         0.030132
 H         1.747004         1.271897         3.494781
 H        -0.808633        -0.749207         0.025169
 H        -0.242019         0.907061        -0.104544
 H         0.357160        -0.535948        -1.213802
 H         1.347556        -2.188442         1.574308
 H         2.511441        -1.628536         0.308326
 H         4.171291         0.064628         3.305056
