19
Iteration:  3136charge 0 multiplicity 1
 C         3.042283         1.708689         0.156364
 C         2.347609         0.762878         1.124537
 C         1.840395         0.769863         2.533296
 O         0.481463         0.324994         2.228515
 C         1.033330        -0.082018         0.917806
 C         0.198848        -0.017312        -0.323674
 C         1.787315        -1.435899         1.380709
 C         2.734595        -0.367215         2.089123
 O         4.073907        -0.462058         2.593270
 H         4.018562         1.905421         0.460155
 H         2.973324         1.406265        -0.923179
 H         2.413030         2.633384        -0.041980
 H         1.974966         1.242256         3.422832
 H        -0.758729        -0.495650        -0.084827
 H        -0.171122         0.882610        -0.781632
 H         0.715711        -0.730683        -0.985196
 H         1.317723        -2.172039         1.981189
 H         2.162616        -1.811049         0.476715
 H         4.026989        -0.802951         3.504599
