19
Iteration:  3776charge 0 multiplicity 1
 C         3.052016         1.783874         0.134023
 C         2.363322         0.789110         1.124201
 C         1.866396         0.822087         2.555931
 O         0.524909         0.538388         2.187556
 C         1.085049        -0.028168         0.955499
 C         0.131324        -0.252716        -0.224577
 C         1.742855        -1.399877         1.405012
 C         2.744727        -0.405501         2.011678
 O         4.032482        -0.647115         2.541906
 H         2.331584         2.657190         0.189682
 H         4.026777         2.010226         0.583252
 H         3.068737         1.508434        -0.847591
 H         2.350858         1.374414         3.422098
 H        -0.494522        -1.080233        -0.092668
 H        -0.495633         0.554368        -0.550785
 H         0.619660        -0.415636        -1.222755
 H         1.140232        -1.942228         2.079319
 H         2.109121        -1.852442         0.450834
 H         3.968522        -0.846751         3.486503
