19
Iteration:  3017
 C         2.996836         1.803924         0.257870
 C         2.410274         0.714552         1.102351
 C         1.865743         0.850555         2.541863
 O         0.501694         0.470905         2.142085
 C         1.030307        -0.097995         0.924007
 C         0.083973        -0.187416        -0.271887
 C         1.814432        -1.385608         1.339255
 C         2.769404        -0.380310         2.089040
 O         4.051411        -0.599261         2.566959
 H         3.675559         2.357927         0.934736
 H         3.759604         1.463151        -0.579285
 H         2.236358         2.542947        -0.204862
 H         2.136594         1.582717         3.235149
 H        -0.533338        -1.098359        -0.187435
 H        -0.586017         0.695319        -0.379723
 H         0.775321        -0.317589        -1.136964
 H         1.111857        -2.113126         1.986027
 H         2.241173        -1.966750         0.425630
 H         4.051644        -0.973286         3.481697
