19
Iteration:  1039
 C         3.000579         2.006445         0.568963
 C         2.282164         0.855487         1.055492
 C         1.826120         0.592672         2.582913
 O         0.451710         0.178793         2.254419
 C         1.038811        -0.182575         0.855567
 C         0.163533        -0.075049        -0.360691
 C         1.961600        -1.332605         1.209323
 C         2.799106        -0.307475         1.889831
 O         3.967242        -0.592009         2.542304
 H         3.746421         2.105610         1.350115
 H         3.536781         1.965717        -0.374228
 H         2.356737         2.940908         0.505659
 H         1.972680         0.949788         3.705955
 H        -0.764664        -0.576515         0.018516
 H        -0.074224         0.987323        -0.640471
 H         0.566417        -0.766752        -1.202843
 H         1.451537        -2.204937         1.813541
 H         2.515050        -1.699611         0.345970
 H         4.488632         0.142822         2.818993
