19
Iteration:  4669charge 0 multiplicity 1
 C         3.084672         1.718793         0.207014
 C         2.350533         0.729647         1.077400
 C         1.853239         0.772801         2.451353
 O         0.506297         0.455564         2.230609
 C         1.055029        -0.070890         0.937849
 C        -0.027429        -0.164187        -0.270553
 C         1.813561        -1.302445         1.336511
 C         2.808673        -0.378350         2.147998
 O         4.085286        -0.565190         2.573323
 H         2.325602         2.490747        -0.186852
 H         3.914547         2.220593         0.836676
 H         3.683838         1.146152        -0.555863
 H         2.080485         1.573882         3.148727
 H        -0.578549        -1.152816        -0.034144
 H        -0.752739         0.649222        -0.442293
 H         0.408161        -0.262173        -1.307786
 H         1.220337        -2.190495         1.749633
 H         2.402962        -1.718378         0.464426
 H         3.942893        -0.734117         3.527393
