19
Iteration:  4629
 C         2.946090         1.961790         0.165023
 C         2.449305         0.781877         1.006585
 C         1.906608         0.797141         2.402552
 O         0.470061         0.522909         2.120652
 C         1.034915        -0.180064         0.909109
 C         0.083479        -0.144823        -0.135956
 C         1.832480        -1.441019         1.532726
 C         2.805053        -0.386247         1.935579
 O         4.008735        -0.726232         2.651180
 H         2.446305         2.370920        -0.741620
 H         3.340206         2.862383         0.760034
 H         3.895941         1.744171        -0.177969
 H         2.183718         1.380905         3.273255
 H        -0.511145        -1.007575         0.046860
 H        -0.429916         0.815181         0.011006
 H         0.717436        -0.206782        -1.060044
 H         1.268955        -2.204133         2.231411
 H         2.220706        -2.044491         0.725754
 H         3.879846        -1.193103         3.498181
