19
Iteration:  2616charge 0 multiplicity 1
 C         3.088838         1.763910         0.232362
 C         2.357176         0.829219         1.107016
 C         1.751248         0.800741         2.522267
 O         0.455751         0.328628         2.165288
 C         1.071588        -0.150166         0.876982
 C        -0.005481        -0.013095        -0.204447
 C         1.877560        -1.409248         1.355095
 C         2.794951        -0.384312         2.070881
 O         4.121416        -0.599129         2.553260
 H         3.902401         2.196549         0.884070
 H         3.651048         1.200508        -0.605561
 H         2.490124         2.583013        -0.146067
 H         1.780149         1.549702         3.370948
 H        -0.877527        -0.622866        -0.099677
 H        -0.225722         0.998371        -0.454766
 H         0.452597        -0.389154        -1.130402
 H         1.315631        -2.186792         1.786249
 H         2.370477        -1.900297         0.583175
 H         4.045783        -0.421885         3.502354
