19
Iteration:  1317
 C         2.921445         1.893959         0.293938
 C         2.371166         0.812724         1.217510
 C         1.809986         0.649437         2.581343
 O         0.486287         0.337643         2.138988
 C         1.093672        -0.073565         0.897415
 C         0.101089        -0.109641        -0.282446
 C         1.933222        -1.343846         1.153999
 C         2.763927        -0.460964         2.069341
 O         4.075466        -0.560490         2.633119
 H         3.719558         2.500376         0.779131
 H         3.311719         1.317225        -0.608194
 H         2.168939         2.500712        -0.067841
 H         1.881042         1.427879         3.412743
 H        -0.429808        -1.100245        -0.371734
 H        -0.680624         0.623118        -0.089385
 H         0.504764         0.134149        -1.249414
 H         1.347052        -2.113203         1.564886
 H         2.528172        -1.631149         0.236303
 H         4.100220        -0.586630         3.579900
