19
Iteration:  3686charge 0 multiplicity 1
 C         3.195984         1.542651         0.227027
 C         2.322682         0.744183         1.154647
 C         1.798957         0.762699         2.491015
 O         0.442372         0.392883         2.223493
 C         1.016300        -0.120877         0.891969
 C        -0.040702        -0.042585        -0.230690
 C         1.873106        -1.467747         1.346958
 C         2.743280        -0.363185         2.047880
 O         4.095939        -0.312144         2.549811
 H         3.487782         2.576142         0.516026
 H         4.066193         0.897601         0.214769
 H         2.846741         1.755478        -0.760262
 H         2.194779         1.417558         3.206599
 H        -1.018722        -0.326885         0.046619
 H         0.038731         1.035882        -0.624032
 H         0.368631        -0.532465        -1.067202
 H         1.344112        -2.213088         1.901051
 H         2.325038        -1.865789         0.366944
 H         4.181505        -0.761814         3.394250
