19
Iteration:  4434charge 0 multiplicity 1
 C         2.905334         1.809730         0.206744
 C         2.428139         0.680809         1.074070
 C         1.868529         0.790850         2.470795
 O         0.517972         0.544769         2.151798
 C         0.998292        -0.057789         0.976930
 C         0.011206        -0.065365        -0.254387
 C         1.823896        -1.340346         1.501660
 C         2.927635        -0.372336         2.025232
 O         4.107227        -0.794591         2.555994
 H         3.637011         1.454963        -0.524639
 H         2.120904         2.168721        -0.439309
 H         3.440711         2.676268         0.652176
 H         1.992616         1.465381         3.330805
 H        -0.855009        -0.643967        -0.234350
 H        -0.294857         0.968345        -0.547989
 H         0.459432        -0.352130        -1.228629
 H         1.300831        -1.851112         2.291875
 H         2.144286        -2.013178         0.711385
 H         3.873079        -1.295722         3.362510
