19
Iteration:  4125charge 0 multiplicity 1
 C         3.298709         1.597900         0.321452
 C         2.347159         0.793531         1.122516
 C         1.818840         0.833951         2.537939
 O         0.512108         0.528656         2.286056
 C         0.867771        -0.016593         0.957364
 C        -0.057168        -0.200886        -0.189111
 C         1.713008        -1.295084         1.394095
 C         2.759453        -0.362197         1.935534
 O         4.171806        -0.618405         2.312536
 H         4.186873         1.667869         1.010301
 H         3.539187         1.168719        -0.704547
 H         3.039065         2.587647         0.197835
 H         2.212772         1.241581         3.496077
 H        -0.671987        -1.022325        -0.040534
 H        -0.639418         0.664625        -0.324792
 H         0.479681        -0.340481        -1.059360
 H         1.118235        -2.159922         1.983475
 H         2.196544        -1.655796         0.407309
 H         3.991071        -0.984064         3.203121
