19
Iteration:   484charge 0 multiplicity 1
 C         3.094422         1.945750         0.431381
 C         2.341736         0.876797         1.163239
 C         1.827263         0.600205         2.517924
 O         0.476199         0.149591         2.266698
 C         0.930984        -0.165989         0.891127
 C         0.114120         0.008135        -0.287678
 C         1.881794        -1.369020         1.168261
 C         2.840768        -0.307016         1.888880
 O         3.965590        -0.564195         2.679590
 H         3.889635         2.512741         0.911031
 H         3.423128         1.705382        -0.596569
 H         2.348451         2.678726         0.223268
 H         1.997973         0.998690         3.592158
 H        -0.734666        -0.633699        -0.275692
 H        -0.299012         1.016011        -0.519231
 H         0.846956        -0.293284        -1.066776
 H         1.510151        -2.241594         1.812843
 H         2.236382        -1.778631         0.227634
 H         4.700366        -0.478837         1.995223
