19
Iteration:  2186charge 0 multiplicity 1
 C         2.914086         1.720814         0.255742
 C         2.361932         0.755898         1.195990
 C         1.765769         0.781896         2.538830
 O         0.421591         0.378983         2.069059
 C         1.070274        -0.094320         0.878614
 C         0.191099        -0.047386        -0.286889
 C         1.895323        -1.404057         1.438597
 C         2.770886        -0.375573         2.099391
 O         4.137224        -0.506977         2.544972
 H         3.874434         2.217886         0.582518
 H         3.167141         1.236695        -0.732296
 H         2.129113         2.387390         0.155529
 H         2.017410         1.561757         3.253464
 H        -0.482163        -0.974082        -0.185699
 H        -0.484248         0.858295        -0.325628
 H         0.825842        -0.115687        -1.200841
 H         1.289703        -2.029538         2.156527
 H         2.373974        -1.943057         0.539883
 H         4.085991        -1.265646         3.197927
