19
Iteration:   235
 C         3.054078         2.145602         0.734538
 C         2.287950         0.963957         1.108039
 C         1.818257         0.662367         2.471320
 O         0.533364         0.150107         2.155842
 C         0.989779        -0.166919         0.828337
 C        -0.055177        -0.198830        -0.273201
 C         1.926120        -1.336165         1.160097
 C         2.903994        -0.316003         1.837899
 O         4.014354        -0.682072         2.633344
 H         3.735381         2.368211         1.584417
 H         3.609502         2.055631        -0.147209
 H         2.408024         3.104814         0.674109
 H         1.769884         1.134174         3.402016
 H        -0.678450        -1.060271        -0.440790
 H        -0.521170         0.813556        -0.275423
 H         0.582044        -0.062282        -1.201266
 H         1.626163        -2.185869         1.818798
 H         2.214885        -1.715499         0.181603
 H         4.755750        -1.071961         2.082521
