19
Iteration:  4701charge 0 multiplicity 1
 C         3.231320         1.562836         0.199395
 C         2.267151         0.830934         1.171246
 C         1.703548         0.762019         2.541864
 O         0.418084         0.362182         2.227136
 C         1.041572        -0.139473         0.983019
 C         0.121868        -0.083572        -0.212029
 C         1.926917        -1.310852         1.397210
 C         2.767909        -0.297295         1.997933
 O         3.996265        -0.491614         2.410381
 H         3.143917         2.655797        -0.096085
 H         4.328751         1.521603         0.380734
 H         3.053517         1.165820        -0.871019
 H         1.880302         1.320378         3.461615
 H        -0.739457        -0.795099         0.162848
 H        -0.224048         1.000132        -0.318740
 H         0.695214        -0.502557        -1.094715
 H         1.578264        -2.054179         2.084654
 H         2.336443        -1.799276         0.478768
 H         3.954098        -0.404746         3.376650
