19
Iteration:   995
 C         2.897651         2.026377         0.566589
 C         2.338897         0.802390         1.225087
 C         1.676999         0.636311         2.587605
 O         0.440325         0.310391         2.079029
 C         1.177051        -0.070915         0.761978
 C         0.071394        -0.178817        -0.232067
 C         2.017576        -1.328392         1.101519
 C         2.830012        -0.348568         2.026422
 O         4.075300        -0.619284         2.622086
 H         3.754243         2.331978         1.159999
 H         3.331705         1.837331        -0.432617
 H         2.154559         2.924575         0.444483
 H         1.977576         1.108174         3.628336
 H        -0.782161        -0.813398         0.093569
 H        -0.309804         0.870306        -0.309163
 H         0.442042        -0.558850        -1.263829
 H         1.500642        -2.293602         1.489802
 H         2.542612        -1.701586         0.216479
 H         4.392190        -1.295932         2.022710
