19
Iteration:  2170
 C         2.869380         1.839443         0.202418
 C         2.427001         0.725836         1.145321
 C         1.755546         0.894407         2.531436
 O         0.473585         0.432459         2.163419
 C         1.088088        -0.152563         0.906013
 C         0.234880        -0.156368        -0.355659
 C         1.797102        -1.416199         1.427404
 C         2.826167        -0.373694         2.120333
 O         4.098244        -0.615957         2.536959
 H         3.719766         2.372809         0.571554
 H         3.058562         1.470003        -0.795288
 H         2.071138         2.699529         0.219143
 H         1.734853         1.092727         3.666049
 H        -0.453681        -0.962906        -0.351838
 H        -0.425470         0.681072        -0.378726
 H         0.844963        -0.030665        -1.242041
 H         1.194136        -2.139510         1.948699
 H         2.383346        -1.811545         0.651140
 H         4.119886        -0.837566         3.486194
