19
Iteration:  1360charge 0 multiplicity 1
 C         2.985354         1.973371         0.324458
 C         2.237783         0.850260         1.107561
 C         1.818276         0.690302         2.538086
 O         0.454992         0.270926         2.211342
 C         1.038003        -0.179022         0.889031
 C         0.187611        -0.099956        -0.331018
 C         1.881490        -1.409600         1.378566
 C         2.819339        -0.262845         2.021591
 O         4.014536        -0.672521         2.632265
 H         3.973444         2.282799         0.855193
 H         3.381981         1.525915        -0.699812
 H         2.426585         2.857855         0.026667
 H         1.913097         1.484549         3.327829
 H        -0.373329        -1.065322        -0.633591
 H        -0.442430         0.786917        -0.194896
 H         0.848188         0.147604        -1.163079
 H         1.477013        -2.019404         2.173327
 H         2.371878        -1.957740         0.503131
 H         4.656088        -0.450148         1.890342
