19
Iteration:  3066charge 0 multiplicity 1
 C         3.339361         1.652431         0.376562
 C         2.300468         0.872302         1.102849
 C         1.713730         0.857222         2.447010
 O         0.493426         0.326311         2.147643
 C         1.007449        -0.113083         0.895742
 C         0.014505        -0.219715        -0.157747
 C         1.873746        -1.332322         1.354624
 C         2.710511        -0.283935         2.017038
 O         4.015988        -0.502811         2.453405
 H         4.156800         1.887972         1.062279
 H         3.702686         1.244126        -0.471607
 H         2.897790         2.534625        -0.024326
 H         1.966448         1.318865         3.481493
 H        -0.750015        -0.924550         0.259683
 H        -0.579591         0.707118        -0.165679
 H         0.416899        -0.558527        -1.128578
 H         1.343449        -2.149309         1.783244
 H         2.483738        -1.633520         0.512267
 H         4.057531        -0.862355         3.341994
