19
Iteration:  4717
 C         3.205137         1.531541         0.156367
 C         2.298794         0.835921         1.107110
 C         1.774394         0.751678         2.604103
 O         0.411186         0.264578         2.236879
 C         1.054057        -0.064342         0.923803
 C         0.071728        -0.055681        -0.260677
 C         1.814010        -1.372626         1.387653
 C         2.730167        -0.259219         2.101887
 O         4.117033        -0.394701         2.442335
 H         3.152875         2.604312         0.432253
 H         4.188526         1.057398         0.405677
 H         2.991716         1.256143        -0.855676
 H         1.880688         1.461523         3.431050
 H        -0.831034        -0.545702        -0.055759
 H        -0.114996         0.940274        -0.618556
 H         0.475162        -0.519373        -1.151039
 H         1.126539        -2.153404         1.955237
 H         2.441551        -1.908838         0.661239
 H         4.223021        -0.582012         3.394254
