19
Iteration:  1411
 C         2.993554         1.864567         0.360970
 C         2.306016         0.727294         1.194054
 C         1.785772         0.697329         2.551866
 O         0.424009         0.430737         2.101143
 C         1.064569        -0.157682         0.898606
 C         0.082183        -0.181598        -0.263702
 C         1.950761        -1.372377         1.237608
 C         2.806051        -0.357292         2.076012
 O         4.128294        -0.520809         2.516697
 H         3.852757         2.159108         0.957277
 H         3.220299         1.591130        -0.608301
 H         2.428631         2.868643         0.210674
 H         1.786253         1.068322         3.629182
 H        -0.930139        -0.430409         0.098332
 H        -0.001635         0.901078        -0.514456
 H         0.407673        -0.695219        -1.161943
 H         1.491467        -2.308840         1.721647
 H         2.508214        -1.670925         0.343824
 H         3.904225        -0.756282         3.477572
