19
Iteration:  3601charge 0 multiplicity 1
 C         2.932682         1.889996         0.201622
 C         2.386831         0.669081         1.004727
 C         1.874119         0.879473         2.413193
 O         0.549188         0.545231         2.151078
 C         1.074339        -0.118516         0.930138
 C         0.172850        -0.215972        -0.234191
 C         1.828387        -1.493980         1.471938
 C         2.729666        -0.362865         2.054726
 O         4.017059        -0.597997         2.652102
 H         4.045814         2.157143         0.561227
 H         2.929879         1.649401        -0.881504
 H         2.199234         2.646872         0.279023
 H         2.246348         1.512320         3.181719
 H        -0.507906        -1.004711        -0.158103
 H        -0.454973         0.674163        -0.077671
 H         0.638069        -0.291417        -1.248833
 H         1.172178        -2.236747         1.999683
 H         2.260566        -2.180686         0.627483
 H         3.798408        -1.113348         3.470051
