19
Iteration:  3261charge 0 multiplicity 1
 C         3.235588         1.627927         0.345199
 C         2.258577         0.798844         1.059850
 C         1.693834         0.781262         2.555141
 O         0.468637         0.339351         2.124679
 C         1.092747        -0.139529         0.843253
 C        -0.029016        -0.137518        -0.214096
 C         1.899107        -1.325397         1.364964
 C         2.740800        -0.285875         2.125090
 O         4.098660        -0.475512         2.457820
 H         4.160443         2.032277         0.927794
 H         3.683606         1.039537        -0.454721
 H         2.796448         2.480016        -0.036660
 H         1.889820         1.526297         3.352138
 H        -0.816177        -0.671883         0.164972
 H        -0.364360         0.802405        -0.603000
 H         0.279975        -0.570888        -1.080856
 H         1.408672        -1.962578         2.055424
 H         2.539765        -1.882870         0.681924
 H         4.010620        -0.519441         3.421955
