19
Iteration:  4083
 C         3.236521         1.629559         0.247467
 C         2.366614         0.777578         1.078112
 C         1.870636         0.830909         2.560501
 O         0.455548         0.487089         2.202219
 C         1.038749        -0.095723         0.970632
 C        -0.061651        -0.083943        -0.146419
 C         1.791183        -1.376566         1.416264
 C         2.752308        -0.342995         2.013460
 O         4.066648        -0.617853         2.343921
 H         4.288896         1.269084         0.304157
 H         2.905853         1.687964        -0.809177
 H         3.197042         2.615206         0.669926
 H         1.933672         1.393841         3.526885
 H        -0.840249        -0.780559         0.038546
 H        -0.426681         0.902061        -0.242918
 H         0.456897        -0.297779        -1.089762
 H         1.152195        -1.961404         2.050908
 H         2.128666        -1.958852         0.594864
 H         4.284384        -0.910002         3.240356
