19
Iteration:  4737
 C         3.167034         1.543979         0.245378
 C         2.337160         0.689667         1.163886
 C         1.773115         0.854466         2.531830
 O         0.536963         0.366606         2.225685
 C         0.962408        -0.186381         0.873779
 C         0.044901        -0.033880        -0.296286
 C         1.783677        -1.413972         1.327513
 C         2.738995        -0.398224         2.134923
 O         4.131289        -0.271583         2.514623
 H         3.154039         2.626398         0.670507
 H         4.171612         1.027361        -0.073330
 H         2.552418         1.491769        -0.622124
 H         1.929381         1.538293         3.370237
 H        -0.994614        -0.398113        -0.092813
 H        -0.045319         0.966289        -0.577289
 H         0.340989        -0.621469        -1.229704
 H         1.310439        -2.257117         1.979722
 H         2.227792        -1.787936         0.397377
 H         4.344672        -0.835731         3.273687
