19
Iteration:  1968
 C         3.015523         1.879267         0.185132
 C         2.309437         0.775429         1.064212
 C         1.809454         0.747072         2.515537
 O         0.458821         0.319406         2.256081
 C         1.040543        -0.145411         0.934500
 C         0.212711        -0.142592        -0.314015
 C         1.775203        -1.358979         1.334534
 C         2.761623        -0.313082         1.999215
 O         4.119519        -0.568947         2.648838
 H         3.843315         2.321387         0.805783
 H         3.274159         1.677973        -0.920006
 H         2.231856         2.662686         0.150562
 H         2.088006         1.239758         3.505702
 H        -0.329655        -1.094286        -0.521594
 H        -0.469205         0.678686        -0.292505
 H         0.880726         0.005212        -1.196975
 H         1.242052        -2.071054         1.950853
 H         2.209249        -1.990069         0.552485
 H         4.051481        -0.811342         3.569975
