19
Iteration:  4858
 C         3.025647         1.801790         0.218659
 C         2.287584         0.779548         1.003615
 C         1.918394         0.818696         2.482115
 O         0.515141         0.393469         2.153256
 C         1.084286        -0.184697         0.789129
 C         0.107797        -0.215287        -0.258819
 C         1.750382        -1.356722         1.450634
 C         2.795245        -0.307080         2.173244
 O         4.074652        -0.566702         2.649458
 H         4.046562         1.451888        -0.134388
 H         2.280788         1.870417        -0.690512
 H         3.040963         2.809172         0.630161
 H         2.247118         1.677861         3.079182
 H        -0.587982        -1.128293        -0.181158
 H        -0.494659         0.776032        -0.326676
 H         0.537428        -0.266221        -1.303973
 H         1.072000        -2.002392         2.068637
 H         2.250971        -2.049054         0.811116
 H         3.912680        -0.475094         3.612357
