19
Iteration:   657charge 0 multiplicity 1
 C         3.118158         1.989483         0.483192
 C         2.326828         0.879611         1.114080
 C         1.809450         0.650147         2.584775
 O         0.438055         0.177654         2.211205
 C         1.010745        -0.076915         0.876101
 C         0.036603        -0.152346        -0.283932
 C         1.966438        -1.323170         1.139217
 C         2.833872        -0.275465         1.945784
 O         3.961882        -0.682618         2.627680
 H         3.914792         2.315125         1.151461
 H         3.541269         1.766477        -0.575884
 H         2.517760         2.842605         0.383265
 H         1.684871         1.286503         3.512895
 H        -0.763837        -0.847509         0.011194
 H        -0.355216         0.831910        -0.573935
 H         0.490298        -0.482095        -1.234160
 H         1.492258        -2.147254         1.693459
 H         2.521419        -1.717498         0.294450
 H         4.693929        -0.149624         2.320243
