19
Iteration:  3013charge 0 multiplicity 1
 C         2.985243         1.805414         0.246125
 C         2.384165         0.713423         1.098260
 C         1.841241         0.817666         2.532335
 O         0.515374         0.474949         2.134841
 C         1.039809        -0.126135         0.930074
 C         0.115200        -0.144269        -0.256434
 C         1.822743        -1.409654         1.355607
 C         2.768772        -0.343898         2.087035
 O         4.036816        -0.617024         2.568308
 H         3.621405         2.436691         0.864296
 H         3.741382         1.439216        -0.569872
 H         2.178672         2.532490        -0.097358
 H         2.277762         1.682321         3.119816
 H        -0.451729        -1.070046        -0.140999
 H        -0.508841         0.707110        -0.381399
 H         0.690007        -0.310414        -1.201916
 H         1.165754        -2.033626         1.915037
 H         2.267815        -1.958165         0.578897
 H         4.065478        -0.973431         3.456868
