19
Iteration:  2874charge 0 multiplicity 1
 C         3.389300         1.739434         0.447134
 C         2.316612         0.780344         1.027541
 C         1.753598         0.789611         2.458903
 O         0.433365         0.446041         2.184051
 C         1.003911        -0.168673         0.891328
 C        -0.054533        -0.238372        -0.149697
 C         1.798130        -1.413295         1.348869
 C         2.697910        -0.344132         2.009762
 O         4.101235        -0.439983         2.417013
 H         4.208901         2.039893         1.114747
 H         3.816129         1.389778        -0.470953
 H         2.820804         2.743707         0.310661
 H         2.044862         1.381140         3.378171
 H        -0.770915        -1.111500        -0.052685
 H        -0.391876         0.819155        -0.181803
 H         0.437096        -0.216919        -1.213048
 H         1.323321        -2.236549         1.985295
 H         2.363442        -1.846866         0.501482
 H         4.097694        -0.863550         3.305318
