19
Iteration:  3948charge 0 multiplicity 1
 C         3.167163         1.694194         0.286345
 C         2.376153         0.710252         1.119759
 C         1.924339         0.775010         2.469456
 O         0.476061         0.543478         2.219105
 C         0.911108        -0.085117         0.985297
 C         0.002116        -0.189406        -0.252554
 C         1.755141        -1.338484         1.419432
 C         2.728619        -0.395014         1.942709
 O         4.141008        -0.537260         2.469114
 H         2.989988         1.700211        -0.833932
 H         3.102872         2.758281         0.630359
 H         4.243701         1.338249         0.487893
 H         2.312437         1.472259         3.223881
 H        -0.764954        -0.941132        -0.195577
 H        -0.547398         0.785977        -0.229515
 H         0.433811        -0.288387        -1.183078
 H         1.197241        -2.008228         2.164008
 H         1.961027        -2.128481         0.607845
 H         4.191756        -0.908977         3.377271
