19
Iteration:  4659
 C         3.015997         1.755531         0.235340
 C         2.483155         0.705131         1.046150
 C         1.922566         0.783656         2.460865
 O         0.524166         0.453494         2.211376
 C         1.043722        -0.066452         0.838495
 C        -0.023981        -0.164820        -0.242114
 C         1.790408        -1.341267         1.402191
 C         2.781383        -0.346423         2.040431
 O         4.041147        -0.577054         2.629981
 H         2.235577         2.379056        -0.352631
 H         3.540539         2.488364         0.993382
 H         3.728534         1.376052        -0.513898
 H         2.194642         1.455330         3.270130
 H        -0.596565        -1.136608        -0.078463
 H        -0.785476         0.537381        -0.166046
 H         0.425184        -0.319246        -1.257850
 H         1.004525        -2.043049         1.913197
 H         2.388282        -1.771588         0.542069
 H         4.035926        -0.960081         3.521641
