19
Iteration:   530
 C         2.875253         1.820998         0.274359
 C         2.389740         0.789118         1.317549
 C         1.761374         0.639913         2.591783
 O         0.442122         0.196775         2.096786
 C         1.078009        -0.042250         0.847672
 C         0.011052         0.050139        -0.247776
 C         2.120241        -1.217218         1.052068
 C         2.829366        -0.421268         2.116824
 O         4.024356        -0.636181         2.762536
 H         3.865583         2.290207         0.470960
 H         2.981245         1.290596        -0.613868
 H         2.152285         2.667889         0.003022
 H         1.918756         1.150254         3.539296
 H        -0.929724        -0.362974        -0.036199
 H        -0.291937         1.123942        -0.130081
 H         0.380901        -0.016247        -1.325286
 H         1.616597        -2.205091         1.317813
 H         2.786575        -1.372536         0.194963
 H         4.642659        -1.051104         2.126633
