19
Iteration:   605
 C         2.929594         2.013453         0.593454
 C         2.354056         0.772616         1.184013
 C         1.785048         0.667938         2.505848
 O         0.384049         0.378185         2.178484
 C         1.108005        -0.137951         0.861020
 C         0.184549        -0.154105        -0.336102
 C         1.885267        -1.358658         1.313092
 C         2.801301        -0.384221         2.001005
 O         4.065701        -0.684670         2.485505
 H         3.638073         2.443451         1.342430
 H         3.428808         1.783134        -0.430936
 H         2.241317         2.813234         0.428539
 H         2.109334         1.275930         3.349091
 H        -0.583174        -0.895630        -0.312132
 H        -0.339081         0.811752        -0.550184
 H         0.814910        -0.187538        -1.304424
 H         1.471941        -2.200289         1.972076
 H         2.233480        -1.759916         0.368726
 H         4.577980        -0.291599         1.760706
