19
Iteration:  1182charge 0 multiplicity 1
 C         2.949743         1.978681         0.450043
 C         2.281392         0.853077         1.135083
 C         1.757135         0.738939         2.571242
 O         0.477425         0.232598         2.182040
 C         1.141774        -0.144147         0.846463
 C         0.110983        -0.094457        -0.345573
 C         1.929172        -1.400749         1.243454
 C         2.811667        -0.333633         2.020488
 O         4.053764        -0.601353         2.615346
 H         3.736703         2.393294         1.093989
 H         3.324928         1.918576        -0.545179
 H         2.268544         2.889584         0.401876
 H         1.814011         1.304844         3.420680
 H        -0.714023        -0.834145        -0.283967
 H        -0.386804         0.918835        -0.511706
 H         0.803159        -0.317073        -1.250707
 H         1.548060        -2.263776         1.907714
 H         2.433961        -1.938707         0.478164
 H         4.258258        -1.419132         2.192253
