19
Iteration:  1780charge 0 multiplicity 1
 C         2.998206         1.766251         0.259264
 C         2.306607         0.777914         1.088327
 C         1.805542         0.734969         2.545122
 O         0.517824         0.391025         2.179623
 C         1.051045        -0.094962         0.931846
 C         0.073074        -0.116935        -0.287482
 C         1.972799        -1.349226         1.309201
 C         2.817404        -0.351089         1.987344
 O         3.957274        -0.544327         2.743649
 H         3.890564         2.176013         0.694177
 H         3.242862         1.382853        -0.823121
 H         2.323538         2.573457         0.136480
 H         1.898335         1.218633         3.491467
 H        -0.398972        -1.117862        -0.210297
 H        -0.703661         0.624946        -0.298814
 H         0.522763        -0.103424        -1.280274
 H         1.689627        -2.290637         1.808942
 H         2.382433        -1.703047         0.411698
 H         4.619509        -0.778522         2.018225
