19
Iteration:  3436
 C         3.004698         1.792638         0.174690
 C         2.374179         0.772131         1.117964
 C         1.754241         0.868742         2.427383
 O         0.463322         0.415060         2.134631
 C         1.120277        -0.172172         0.879538
 C         0.043737        -0.148463        -0.191762
 C         1.883500        -1.273058         1.449115
 C         2.835659        -0.329127         2.076774
 O         4.048088        -0.718004         2.588983
 H         3.435136         2.638343         0.866620
 H         3.801206         1.448204        -0.478313
 H         2.298100         2.211669        -0.456606
 H         2.060257         1.525315         3.241144
 H        -0.681883        -0.949794        -0.184603
 H        -0.544687         0.909126        -0.403438
 H         0.677061        -0.464667        -1.068945
 H         1.366003        -1.969035         2.056259
 H         2.566775        -1.910741         0.791595
 H         4.012577        -0.793841         3.561429
