19
Iteration:  2330
 C         2.866802         1.902937         0.281342
 C         2.473918         0.775482         1.045036
 C         1.797767         0.839993         2.489951
 O         0.481734         0.456923         2.194797
 C         1.065157        -0.087214         0.950629
 C         0.187063        -0.266350        -0.323723
 C         1.847918        -1.323346         1.348591
 C         2.783941        -0.400383         2.022768
 O         4.028981        -0.718082         2.614135
 H         3.919068         2.209544         0.672215
 H         3.177895         1.545785        -0.738026
 H         2.272491         2.740111         0.277358
 H         2.172911         1.263398         3.414490
 H        -0.663915        -1.011381        -0.184914
 H        -0.494720         0.687374        -0.405837
 H         0.866915        -0.337660        -1.242751
 H         1.271807        -1.929182         2.134609
 H         2.336001        -2.119207         0.623568
 H         4.068349        -0.238423         3.439465
