19
Iteration:  1361charge 0 multiplicity 1
 C         2.992533         1.976652         0.321778
 C         2.240735         0.850311         1.108236
 C         1.815463         0.690002         2.541458
 O         0.459348         0.269034         2.215418
 C         1.049282        -0.188867         0.898763
 C         0.184184        -0.104978        -0.335965
 C         1.866125        -1.405748         1.379638
 C         2.808433        -0.256249         2.009785
 O         4.021483        -0.672426         2.632454
 H         3.942382         2.288857         0.872671
 H         3.361869         1.539399        -0.721722
 H         2.445455         2.825960         0.053110
 H         1.939615         1.444025         3.309180
 H        -0.391474        -1.027051        -0.645641
 H        -0.435643         0.776955        -0.223609
 H         0.860686         0.136990        -1.162305
 H         1.441235        -2.009011         2.127596
 H         2.365921        -1.948764         0.519879
 H         4.655321        -0.389263         1.942880
