19
Iteration:  3027charge 0 multiplicity 1
 C         3.105946         1.792071         0.313025
 C         2.403337         0.765729         1.110630
 C         1.885732         0.834599         2.489306
 O         0.471560         0.483340         2.192828
 C         1.015731        -0.045523         0.901715
 C         0.032911        -0.290198        -0.280127
 C         1.760243        -1.317402         1.347525
 C         2.772593        -0.456354         2.048767
 O         4.095370        -0.554679         2.565384
 H         3.758197         2.410523         0.943818
 H         3.721546         1.264870        -0.646980
 H         2.307729         2.487431        -0.242677
 H         1.823777         1.217129         3.419799
 H        -0.623967        -1.162124        -0.256702
 H        -0.571251         0.608881        -0.439893
 H         0.691069        -0.318641        -1.197421
 H         1.278001        -2.206265         1.970445
 H         2.269358        -1.682728         0.388327
 H         3.929048        -0.936715         3.471326
