19
Iteration:  4683
 C         3.160265         1.634351         0.202834
 C         2.311693         0.830860         1.110834
 C         1.821654         0.870345         2.555471
 O         0.457438         0.433157         2.205183
 C         0.947839        -0.126114         0.909186
 C         0.056817        -0.168907        -0.191153
 C         1.893038        -1.379865         1.300434
 C         2.717491        -0.350648         2.046857
 O         4.093562        -0.561737         2.534358
 H         2.633177         2.614824        -0.111720
 H         4.143941         1.986834         0.739307
 H         3.341649         1.123390        -0.702585
 H         2.002363         1.520963         3.415267
 H        -0.722035        -0.916827        -0.198867
 H        -0.436894         0.737871        -0.211172
 H         0.696923        -0.350576        -1.082406
 H         1.398044        -2.244009         1.957526
 H         2.390623        -1.649845         0.357918
 H         4.195237        -0.554591         3.499990
