19
Iteration:  2740
 C         2.941126         1.769498         0.270424
 C         2.320096         0.790360         1.107579
 C         1.872835         0.737728         2.496977
 O         0.480901         0.348271         2.170035
 C         1.029580        -0.085851         0.922275
 C         0.112217         0.048938        -0.290073
 C         1.884030        -1.444392         1.421554
 C         2.873853        -0.413963         2.008417
 O         4.043670        -0.580263         2.601795
 H         3.947381         2.023280         0.515714
 H         2.983225         1.270752        -0.774679
 H         2.315177         2.684201        -0.103835
 H         2.182088         1.346104         3.275707
 H        -0.886538        -0.541183        -0.196076
 H        -0.219998         1.076839        -0.637329
 H         0.672335        -0.467189        -1.100996
 H         1.327314        -2.116583         2.024983
 H         2.320918        -1.901347         0.556023
 H         3.931832        -0.565164         3.559185
