19
Iteration:  4187charge 0 multiplicity 1
 C         2.985511         1.694359         0.104974
 C         2.343372         0.737048         1.078224
 C         1.897024         0.797363         2.496030
 O         0.531241         0.441227         2.268065
 C         1.035136        -0.099633         0.916967
 C        -0.013971         0.150727        -0.097973
 C         1.784653        -1.376431         1.343844
 C         2.820454        -0.512195         1.943413
 O         4.141279        -0.713892         2.599045
 H         3.436497         2.573937         0.623463
 H         3.893745         1.354715        -0.464767
 H         2.166198         1.995726        -0.660197
 H         2.238454         1.546212         3.202306
 H        -1.189451        -0.171302         0.070599
 H        -0.087246         1.338043        -0.360384
 H         0.227847        -0.371650        -1.081473
 H         1.347726        -2.113705         1.971121
 H         2.511941        -1.754021         0.590005
 H         3.843047        -0.810574         3.522956
