19
Iteration:  2914
 C         3.178725         1.660826         0.239670
 C         2.292548         0.853639         1.132032
 C         1.793156         0.749382         2.522357
 O         0.401045         0.386425         2.179143
 C         1.004360        -0.149201         0.890240
 C         0.033796        -0.111760        -0.230936
 C         1.907890        -1.288449         1.291342
 C         2.779969        -0.325268         2.057467
 O         4.116808        -0.539782         2.557086
 H         4.149388         1.874215         0.720559
 H         3.440625         1.157993        -0.783430
 H         2.776618         2.690567         0.252674
 H         1.805791         1.341655         3.492081
 H        -0.748677        -0.734455         0.222141
 H        -0.367060         0.875929        -0.437574
 H         0.334608        -0.597975        -1.128523
 H         1.247125        -2.045542         1.904494
 H         2.442302        -1.767446         0.482991
 H         4.115575        -1.076732         3.375214
