19
Iteration:  2751
 C         2.888240         1.752096         0.155038
 C         2.343945         0.728531         1.140422
 C         1.870410         0.721582         2.567130
 O         0.505460         0.395092         2.191622
 C         1.120752        -0.103163         0.906044
 C         0.200641         0.022567        -0.263385
 C         1.862240        -1.451044         1.339205
 C         2.752893        -0.402049         1.962322
 O         4.057422        -0.546796         2.647410
 H         3.789490         2.269259         0.413276
 H         3.027000         1.268183        -0.876254
 H         2.065878         2.576270         0.262796
 H         2.088670         1.266521         3.415365
 H        -0.814056        -0.441826         0.047160
 H         0.106675         1.147219        -0.366820
 H         0.574223        -0.379127        -1.235944
 H         1.207626        -2.031504         1.936185
 H         2.022989        -1.918342         0.399203
 H         3.832978        -0.627031         3.610563
