19
Iteration:  3934charge 0 multiplicity 1
 C         3.284145         1.654417         0.323813
 C         2.356892         0.764407         1.022379
 C         1.862949         0.730884         2.492679
 O         0.465177         0.514514         2.197809
 C         0.957438        -0.041838         0.887529
 C        -0.103684        -0.159801        -0.216296
 C         1.718686        -1.391049         1.475229
 C         2.819487        -0.420040         2.049566
 O         4.126776        -0.458971         2.415134
 H         2.982135         1.729368        -0.713124
 H         3.226695         2.651866         0.783884
 H         4.429746         1.324417         0.338525
 H         2.042745         1.283703         3.411767
 H        -0.740655        -1.060018        -0.059972
 H        -0.740995         0.698049        -0.254712
 H         0.467174        -0.246794        -1.151478
 H         1.100530        -2.002964         2.308435
 H         2.236138        -1.910662         0.636702
 H         4.142988        -1.059594         3.175976
