19
Iteration:  1788charge 0 multiplicity 1
 C         3.003264         1.806186         0.258605
 C         2.339512         0.812251         1.100699
 C         1.872773         0.754079         2.547344
 O         0.472880         0.315875         2.164401
 C         1.035627        -0.128258         0.925771
 C         0.064296        -0.110581        -0.273123
 C         1.963111        -1.351634         1.332033
 C         2.800960        -0.331523         2.006601
 O         3.939260        -0.536745         2.679641
 H         3.918544         2.087817         0.745987
 H         3.291411         1.365295        -0.781888
 H         2.373531         2.660491         0.015477
 H         1.944827         1.360651         3.382099
 H        -0.442643        -1.050691        -0.305172
 H        -0.692846         0.708331        -0.284545
 H         0.707248        -0.191689        -1.151666
 H         1.587738        -2.083839         2.048623
 H         2.463992        -1.657565         0.415340
 H         4.660780        -1.140001         2.355560
