19
Iteration:  3717
 C         3.269221         1.599795         0.231000
 C         2.374796         0.774344         1.091222
 C         1.713747         0.801902         2.478881
 O         0.450736         0.321240         2.125434
 C         1.126696        -0.149374         0.891156
 C        -0.081028        -0.087479        -0.130052
 C         1.889213        -1.345818         1.406275
 C         2.699601        -0.311891         2.106873
 O         4.033254        -0.427310         2.469860
 H         3.439403         2.564807         0.588145
 H         4.278228         1.207051         0.248243
 H         3.080139         1.638262        -0.891452
 H         2.089954         1.489988         3.215963
 H        -1.145523        -0.571507         0.181456
 H        -0.245750         1.109102        -0.025239
 H         0.324177        -0.397232        -1.079499
 H         1.321365        -2.080011         1.957147
 H         2.385036        -1.971744         0.683121
 H         4.185281        -0.737880         3.396197
