19
Iteration:  2156
 C         2.868054         1.899890         0.211545
 C         2.314685         0.815945         1.136363
 C         1.850183         0.742240         2.527385
 O         0.455376         0.462168         2.199214
 C         1.103175        -0.156583         0.914323
 C         0.257097        -0.195082        -0.331142
 C         1.868583        -1.347507         1.406675
 C         2.725728        -0.376769         2.073281
 O         4.073768        -0.687814         2.576415
 H         3.866310         2.329634         0.627551
 H         3.046801         1.551779        -0.806935
 H         2.053405         2.704033         0.040158
 H         2.157707         1.604975         3.053395
 H        -0.276255        -1.127841        -0.519466
 H        -0.314612         0.763697        -0.341821
 H         0.937798        -0.269179        -1.192146
 H         1.282444        -2.025917         2.084153
 H         2.215220        -2.026949         0.562583
 H         4.083236        -0.554728         3.535678
