19
Iteration:  2387charge 0 multiplicity 1
 C         2.904809         1.810859         0.147875
 C         2.346958         0.748269         1.097386
 C         1.857461         0.790651         2.519780
 O         0.465619         0.300287         2.191349
 C         1.080418        -0.096669         0.988498
 C         0.236754        -0.010713        -0.285232
 C         1.836374        -1.412127         1.349114
 C         2.804828        -0.346203         1.975731
 O         4.039489        -0.542286         2.704163
 H         3.747381         2.272949         0.557585
 H         3.170201         1.231722        -0.713039
 H         2.202867         2.488892        -0.252381
 H         2.103327         1.536050         3.299447
 H        -0.628179        -0.706673        -0.090343
 H        -0.151069         1.024133        -0.435574
 H         0.640054        -0.414113        -1.279722
 H         1.168589        -2.051686         2.072467
 H         2.247507        -1.997516         0.500872
 H         3.978508        -1.389329         3.212056
