19
Iteration:    54charge 0 multiplicity 1
 C         3.029049         2.260834         0.634813
 C         2.282345         1.029735         1.129701
 C         1.807925         0.672622         2.532320
 O         0.493725         0.138255         2.152756
 C         0.962249        -0.044793         0.846265
 C        -0.083217        -0.214299        -0.271559
 C         2.085054        -1.358541         1.084287
 C         2.872277        -0.334633         1.902307
 O         4.013565        -0.893566         2.623798
 H         3.766920         2.489622         1.455317
 H         3.617406         1.974724        -0.335978
 H         2.440217         3.084014         0.454015
 H         1.989087         1.041665         3.527522
 H        -0.051006        -1.240586        -0.491667
 H        -1.045753         0.281212        -0.128542
 H         0.325493         0.221016        -1.226577
 H         1.539231        -2.092363         1.532286
 H         2.637730        -1.678823         0.198313
 H         4.558845        -0.216141         3.000588
