19
Iteration:  1459charge 0 multiplicity 1
 C         3.100068         1.891824         0.266684
 C         2.233171         0.855328         1.131003
 C         1.791929         0.743504         2.526125
 O         0.510014         0.246548         2.196833
 C         1.041574        -0.148232         0.832425
 C         0.045365        -0.114681        -0.257867
 C         1.963354        -1.347646         1.338748
 C         2.807798        -0.316506         1.976715
 O         3.948083        -0.613556         2.687672
 H         3.809545         2.357523         1.006723
 H         3.606881         1.521951        -0.663573
 H         2.570329         2.751566        -0.019352
 H         2.049825         1.018305         3.493117
 H        -0.924031        -0.311884         0.279885
 H        -0.034527         0.824305        -0.813505
 H         0.344130        -0.951578        -0.930965
 H         1.525299        -2.179399         1.856511
 H         2.565991        -1.737353         0.425680
 H         4.716974        -0.262283         2.165112
