19
Iteration:  4391charge 0 multiplicity 1
 C         3.004954         1.689686         0.102694
 C         2.405492         0.709203         1.072038
 C         1.910140         0.752926         2.495688
 O         0.545656         0.469059         2.254020
 C         0.973304        -0.122494         0.961483
 C         0.145292         0.079445        -0.118055
 C         1.801358        -1.432340         1.375990
 C         2.729485        -0.394347         1.954557
 O         4.009463        -0.578441         2.546858
 H         3.937676         1.453304        -0.381323
 H         2.257407         1.784391        -0.646760
 H         3.009665         2.696439         0.632731
 H         2.234966         1.307874         3.398555
 H        -0.825040        -0.183099         0.095153
 H         0.173920         1.082084        -0.541350
 H         0.552480        -0.638430        -0.811226
 H         1.320241        -2.197037         2.083537
 H         2.311717        -1.950080         0.543804
 H         3.875012        -1.059180         3.389788
