19
Iteration:  1900charge 0 multiplicity 1
 C         3.040306         1.903664         0.284969
 C         2.233324         0.890158         1.055599
 C         1.790736         0.806813         2.518435
 O         0.466802         0.232063         2.158284
 C         1.058210        -0.091458         0.829038
 C         0.027808        -0.099840        -0.253264
 C         2.089964        -1.411825         1.380576
 C         2.813841        -0.260980         2.049559
 O         3.998348        -0.742815         2.626329
 H         3.866460         2.329330         0.820538
 H         3.438078         1.455246        -0.752209
 H         2.390979         2.626628        -0.131078
 H         1.772927         1.454457         3.493447
 H        -0.931497        -0.485320         0.132653
 H        -0.108269         0.903953        -0.597893
 H         0.293694        -0.871027        -0.974298
 H         1.471371        -2.111876         1.950442
 H         2.627996        -2.005773         0.696799
 H         4.451502        -0.043560         3.138196
