19
Iteration:  2042charge 0 multiplicity 1
 C         3.131350         1.731664         0.328731
 C         2.303197         0.788923         1.130678
 C         1.827387         0.681257         2.589830
 O         0.457280         0.299387         2.231695
 C         1.032459        -0.131138         0.914959
 C         0.117003        -0.171220        -0.300432
 C         1.856804        -1.302847         1.269828
 C         2.777055        -0.264520         1.994499
 O         4.008420        -0.408765         2.514331
 H         3.911576         2.065813         0.968047
 H         3.672919         1.173326        -0.529152
 H         2.617187         2.496848        -0.139813
 H         2.103341         1.331215         3.503840
 H        -0.832136        -0.729404        -0.085250
 H        -0.110725         0.814580        -0.672173
 H         0.574497        -0.834388        -1.061484
 H         1.257888        -2.142801         1.770892
 H         2.373178        -1.778908         0.450220
 H         3.803259        -0.696367         3.431104
