19
Iteration:  1595charge 0 multiplicity 1
 C         3.054390         1.848121         0.242720
 C         2.351329         0.782192         1.130377
 C         1.751655         0.637141         2.548268
 O         0.406861         0.404107         2.140228
 C         1.074019        -0.016599         0.929038
 C         0.080104        -0.179361        -0.211085
 C         1.866340        -1.411719         1.236577
 C         2.853739        -0.361884         2.035830
 O         4.062183        -0.580667         2.673779
 H         4.036067         2.087191         0.596453
 H         3.188831         1.262901        -0.713267
 H         2.444665         2.683064        -0.153479
 H         1.974874         1.457459         3.213751
 H        -0.700837        -0.953105        -0.071294
 H        -0.327215         0.850670        -0.238518
 H         0.480472        -0.401464        -1.196005
 H         1.387956        -2.201976         1.874756
 H         2.494227        -1.826966         0.518775
 H         4.501867         0.216415         2.921010
