19
Iteration:  2154charge 0 multiplicity 1
 C         2.864527         1.902077         0.224019
 C         2.301092         0.823134         1.120803
 C         1.874740         0.730464         2.525058
 O         0.449030         0.458245         2.200503
 C         1.101806        -0.136457         0.922278
 C         0.262829        -0.197218        -0.324574
 C         1.870801        -1.347141         1.405652
 C         2.720232        -0.374607         2.056576
 O         4.068794        -0.695082         2.584860
 H         3.838577         2.354842         0.636657
 H         3.034085         1.510510        -0.817688
 H         2.137772         2.677123         0.049919
 H         2.135408         1.625047         2.971192
 H        -0.305343        -1.158019        -0.502221
 H        -0.332821         0.760340        -0.383284
 H         0.960804        -0.267747        -1.191309
 H         1.320460        -2.027051         2.128474
 H         2.278425        -2.039673         0.577337
 H         4.062854        -0.524121         3.522246
