19
Iteration:    50
 C         3.025122         2.198196         0.642130
 C         2.318390         1.017919         1.144166
 C         1.822143         0.650641         2.546573
 O         0.468785         0.159499         2.131154
 C         0.941929        -0.042052         0.819656
 C        -0.093149        -0.213223        -0.252295
 C         2.078116        -1.307034         1.056611
 C         2.876182        -0.301524         1.892926
 O         4.043041        -0.895852         2.639968
 H         3.733067         2.510279         1.446861
 H         3.570450         1.983047        -0.317699
 H         2.298134         3.069361         0.475320
 H         2.031645         1.047521         3.614118
 H        -0.019820        -1.319741        -0.495590
 H        -1.088821         0.291989        -0.122105
 H         0.305347         0.136289        -1.246375
 H         1.545762        -2.240750         1.587556
 H         2.624768        -1.639136         0.106449
 H         4.550123        -0.180125         3.122682
