19
Iteration:   666charge 0 multiplicity 1
 C         3.092575         1.979051         0.451668
 C         2.265653         0.915272         1.090681
 C         1.772066         0.696073         2.566256
 O         0.507730         0.106506         2.189446
 C         1.037079        -0.129989         0.882072
 C         0.007708        -0.073129        -0.259142
 C         1.999410        -1.313042         1.157256
 C         2.792035        -0.299753         1.937058
 O         3.923493        -0.660753         2.664779
 H         3.921691         2.037760         1.148732
 H         3.672607         1.738191        -0.417137
 H         2.596538         2.973282         0.324720
 H         2.281564         1.226284         3.484446
 H        -0.860053        -0.812560        -0.249190
 H        -0.317703         0.929460        -0.519229
 H         0.716591        -0.510519        -0.894697
 H         1.638702        -2.120205         1.762894
 H         2.490088        -1.679470         0.224363
 H         4.716346        -0.291975         2.272195
