19
Iteration:  4755charge 0 multiplicity 1
 C         3.118102         1.630899         0.207290
 C         2.309886         0.644348         1.072491
 C         1.818132         0.720282         2.476159
 O         0.371130         0.465950         2.158486
 C         1.028705        -0.146680         0.953093
 C         0.119780        -0.033997        -0.161683
 C         1.909438        -1.454913         1.411299
 C         2.800461        -0.381865         2.041818
 O         4.029172        -0.329663         2.530813
 H         3.428492         2.486595         0.816140
 H         4.019412         1.106757        -0.137032
 H         2.623656         2.073848        -0.716109
 H         2.184849         1.401789         3.244916
 H        -0.925918        -0.439410         0.183051
 H        -0.061321         1.049617        -0.456779
 H         0.484682        -0.735984        -0.987932
 H         1.366324        -2.159821         1.927604
 H         2.506350        -1.793129         0.542065
 H         4.076543        -0.971060         3.258342
