19
Iteration:  1278
 C         3.066842         1.919300         0.338371
 C         2.272573         0.915362         1.148389
 C         1.781900         0.714096         2.496387
 O         0.482312         0.130780         2.203093
 C         1.023987        -0.227200         0.881913
 C         0.086446        -0.055115        -0.245718
 C         1.967337        -1.341675         1.239199
 C         2.824216        -0.319700         1.990485
 O         3.954518        -0.584826         2.698293
 H         3.832507         2.406088         0.939101
 H         3.529470         1.533466        -0.557536
 H         2.436000         2.875519         0.007795
 H         2.023975         1.382220         3.232769
 H        -0.843856        -0.585725        -0.242124
 H        -0.150608         1.024583        -0.266295
 H         0.757294        -0.284706        -1.126283
 H         1.449552        -2.236272         1.759902
 H         2.388758        -1.803941         0.356974
 H         4.667740        -0.392758         2.008010
