19
Iteration:  2435
 C         3.202552         1.581624         0.365454
 C         2.273885         0.820177         1.193783
 C         1.693889         0.773152         2.534651
 O         0.421511         0.337143         2.124516
 C         1.070790        -0.118832         0.885391
 C         0.011927        -0.100013        -0.183652
 C         1.904294        -1.339857         1.264032
 C         2.783205        -0.331232         2.025778
 O         4.116907        -0.447689         2.484554
 H         3.951400         2.050291         1.042653
 H         3.762501         0.996252        -0.376976
 H         2.513507         2.329748        -0.187316
 H         1.889034         1.525986         3.298140
 H        -0.856411        -0.689837         0.068289
 H        -0.237485         0.926440        -0.381556
 H         0.370662        -0.509749        -1.094335
 H         1.300340        -2.236620         1.787123
 H         2.442290        -1.655410         0.343479
 H         4.328608        -0.457400         3.435753
