19
Iteration:  2641
 C         3.236700         1.700071         0.381252
 C         2.354007         0.799930         1.035340
 C         1.785930         0.779787         2.531737
 O         0.498761         0.333340         2.178046
 C         1.033482        -0.133413         0.876603
 C        -0.011838        -0.150938        -0.159615
 C         1.863446        -1.334825         1.350989
 C         2.730784        -0.280879         1.982353
 O         4.000788        -0.490591         2.468441
 H         3.919982         1.921501         1.191507
 H         3.941876         1.205174        -0.426218
 H         2.773606         2.721993        -0.067406
 H         2.052971         1.454372         3.390162
 H        -0.767994        -1.017286         0.088377
 H        -0.500225         0.878963        -0.254076
 H         0.303815        -0.392218        -1.205551
 H         1.378745        -2.140496         1.857163
 H         2.580380        -1.683841         0.591029
 H         3.779030        -1.055717         3.210406
