19
Iteration:  1352charge 0 multiplicity 1
 C         2.944559         1.940945         0.331369
 C         2.258963         0.857061         1.101765
 C         1.799875         0.740098         2.529523
 O         0.432155         0.280577         2.178358
 C         1.013551        -0.118172         0.876834
 C         0.184107        -0.072113        -0.314728
 C         1.994673        -1.394528         1.384991
 C         2.827332        -0.356490         2.060762
 O         4.005715        -0.651560         2.613004
 H         3.855988         2.249337         0.808244
 H         3.388075         1.440363        -0.570781
 H         2.410287         2.778060         0.050978
 H         1.828978         1.438197         3.294950
 H        -0.249061        -1.033654        -0.441513
 H        -0.573828         0.672187        -0.124837
 H         0.778595         0.201687        -1.197278
 H         1.635253        -2.068304         2.121757
 H         2.422779        -1.960253         0.552508
 H         4.580156        -1.019122         1.917056
