19
Iteration:  3387
 C         2.921137         1.848733         0.202293
 C         2.373175         0.690305         1.013270
 C         1.922029         0.804151         2.424916
 O         0.499226         0.504019         2.261212
 C         1.032983        -0.045826         0.954886
 C         0.164783        -0.236863        -0.346700
 C         1.810492        -1.303615         1.344580
 C         2.856578        -0.381469         2.013431
 O         3.997857        -0.701900         2.752754
 H         3.558775         2.543522         0.590634
 H         3.268177         1.457341        -0.778812
 H         1.932404         2.416637        -0.112595
 H         2.148866         1.559285         3.231896
 H        -0.472770        -1.155606        -0.318286
 H        -0.483341         0.537774        -0.371943
 H         0.729666        -0.311493        -1.272817
 H         1.445368        -2.170157         2.052282
 H         2.177918        -1.918655         0.547203
 H         4.139724        -0.369832         3.645590
