19
Iteration:   667
 C         3.087491         1.984850         0.451903
 C         2.255445         0.915442         1.095317
 C         1.771740         0.699202         2.555417
 O         0.517704         0.102059         2.190269
 C         1.038586        -0.137805         0.879632
 C         0.009613        -0.066739        -0.254690
 C         2.005226        -1.309655         1.160620
 C         2.779507        -0.306674         1.934432
 O         3.921059        -0.655905         2.669932
 H         3.909075         2.024473         1.155457
 H         3.687240         1.699822        -0.454335
 H         2.634647         2.943837         0.323341
 H         2.306633         1.198273         3.458800
 H        -0.853116        -0.775799        -0.261731
 H        -0.319340         0.940186        -0.508896
 H         0.729041        -0.501321        -0.896254
 H         1.640859        -2.126967         1.768462
 H         2.481428        -1.653116         0.235406
 H         4.745674        -0.314811         2.260335
