19
Iteration:  3496charge 0 multiplicity 1
 C         3.240674         1.545100         0.255100
 C         2.293869         0.809507         1.178512
 C         1.788772         0.695847         2.569885
 O         0.436455         0.351131         2.203332
 C         1.031692        -0.138670         0.881079
 C         0.080797        -0.079896        -0.251792
 C         1.763814        -1.399028         1.329999
 C         2.763930        -0.354801         2.020014
 O         4.058846        -0.238930         2.502005
 H         4.201872         1.679638         0.641327
 H         3.369556         0.879106        -0.661345
 H         2.950317         2.696327        -0.012260
 H         2.061008         1.238710         3.433609
 H        -0.906722        -0.490571         0.200956
 H        -0.019668         0.777164        -0.814831
 H         0.475264        -0.864626        -0.954904
 H         1.212555        -2.264934         1.879259
 H         2.389339        -1.768647         0.526750
 H         4.141234        -0.672059         3.391690
