19
Iteration:  1797
 C         3.032248         1.873873         0.223517
 C         2.338863         0.849756         1.125522
 C         1.847705         0.761095         2.501579
 O         0.442104         0.243196         2.196629
 C         1.027163        -0.147432         0.880509
 C         0.109426        -0.173155        -0.232634
 C         1.906564        -1.358745         1.344028
 C         2.768826        -0.300975         2.016991
 O         4.009377        -0.523501         2.662179
 H         3.974933         2.189431         0.733575
 H         3.375819         1.320118        -0.619455
 H         2.510601         2.857399         0.011153
 H         2.193329         1.504022         3.222848
 H        -0.680565        -0.913688        -0.301642
 H        -0.360073         0.866355        -0.200014
 H         0.770313         0.015310        -1.109322
 H         1.239479        -2.027860         1.930573
 H         2.526938        -1.976123         0.578960
 H         4.218237        -1.474963         2.416538
