19
Iteration:  4079
 C         3.226205         1.636148         0.228916
 C         2.364838         0.767864         1.056954
 C         1.880635         0.832498         2.601362
 O         0.438537         0.488735         2.201226
 C         0.993289        -0.150727         0.929217
 C        -0.048808        -0.054733        -0.134519
 C         1.794447        -1.343036         1.395597
 C         2.773237        -0.375534         2.008370
 O         4.096529        -0.614249         2.380744
 H         4.287928         1.307749         0.295617
 H         2.787322         1.704648        -0.795153
 H         3.270536         2.642449         0.644890
 H         1.924514         1.452531         3.478674
 H        -0.852282        -0.772583         0.045275
 H        -0.391194         0.997080        -0.277055
 H         0.411693        -0.303160        -1.056730
 H         1.138651        -1.867027         2.227520
 H         2.142451        -2.028816         0.514665
 H         4.282065        -0.942808         3.282244
