19
Iteration:  1838charge 0 multiplicity 1
 C         3.018648         1.799354         0.445608
 C         2.305517         0.765693         1.153028
 C         1.816460         0.692985         2.515780
 O         0.435717         0.440095         2.125941
 C         1.077848        -0.185787         0.926859
 C         0.107002        -0.174355        -0.297046
 C         1.909672        -1.368780         1.320658
 C         2.791745        -0.336734         2.042546
 O         4.086435        -0.529686         2.481631
 H         3.858529         2.487257         0.777132
 H         3.233926         1.347370        -0.488275
 H         2.090820         2.380242         0.078084
 H         1.932620         1.473275         3.379988
 H        -0.949781        -0.556581        -0.108422
 H        -0.005054         0.889012        -0.577713
 H         0.512488        -0.745928        -1.185266
 H         1.350691        -2.067838         1.960491
 H         2.504343        -1.705782         0.412480
 H         4.165163        -0.449999         3.448440
