19
Iteration:  1811charge 0 multiplicity 1
 C         3.089560         1.903841         0.258633
 C         2.254142         0.859903         1.024463
 C         1.719041         0.791934         2.484875
 O         0.493168         0.242928         2.248902
 C         1.125660        -0.189872         0.884581
 C         0.153013        -0.094631        -0.284205
 C         1.836274        -1.402138         1.391146
 C         2.782854        -0.291709         2.057599
 O         4.081001        -0.555062         2.598923
 H         3.914335         2.266507         0.815416
 H         3.433177         1.573116        -0.818122
 H         2.412600         2.669092        -0.003371
 H         1.676679         1.280726         3.381360
 H        -0.575792        -0.849948        -0.053541
 H        -0.385817         0.857491        -0.256172
 H         0.519417        -0.421339        -1.224613
 H         1.284287        -2.011657         2.092139
 H         2.248373        -1.879274         0.537041
 H         4.131367        -1.488301         2.872882
