19
Iteration:  2849charge 0 multiplicity 1
 C         3.226753         1.685363         0.473968
 C         2.296024         0.784492         1.111469
 C         1.876860         0.744479         2.486012
 O         0.468906         0.475461         2.150074
 C         0.961681        -0.037239         0.890784
 C        -0.025589        -0.251252        -0.231400
 C         1.800095        -1.332589         1.306427
 C         2.759616        -0.415360         1.975075
 O         4.101410        -0.481281         2.466305
 H         3.937551         2.179779         1.045067
 H         3.712228         1.239712        -0.415229
 H         2.532381         2.510590         0.232965
 H         2.130391         1.467796         3.264574
 H        -0.554858        -1.185502         0.069397
 H        -0.565623         0.681873        -0.386951
 H         0.427931        -0.358619        -1.218055
 H         1.360933        -2.123874         2.168521
 H         2.269058        -1.903622         0.486809
 H         4.245587        -0.614267         3.443242
