19
Iteration:  2367
 C         2.811838         1.824912         0.128314
 C         2.403529         0.747668         1.151841
 C         1.840561         0.773322         2.508070
 O         0.497977         0.444238         2.182414
 C         1.111194        -0.125863         0.862026
 C         0.169191        -0.070171        -0.321359
 C         1.918775        -1.368452         1.420562
 C         2.763837        -0.364353         2.108807
 O         4.058339        -0.673581         2.636229
 H         3.644867         2.294788         0.494960
 H         2.991924         1.476107        -0.854298
 H         1.892849         2.590003         0.115749
 H         1.949472         1.388546         3.415091
 H        -0.603461        -0.810529        -0.432262
 H        -0.151788         0.947761        -0.432885
 H         0.786147        -0.207022        -1.241572
 H         1.374874        -2.079229         2.190179
 H         2.499024        -1.804537         0.653335
 H         3.862452        -1.203919         3.407387
