19
Iteration:  2306
 C         3.078044         1.920264         0.313896
 C         2.278070         0.921828         0.992378
 C         1.840434         0.721999         2.482216
 O         0.531869         0.359452         2.180295
 C         1.060379        -0.085314         0.914933
 C         0.081275        -0.245737        -0.289504
 C         1.827465        -1.390029         1.419093
 C         2.732645        -0.388424         2.024959
 O         4.015541        -0.653202         2.611864
 H         4.024996         2.171414         0.938933
 H         3.497872         1.557077        -0.700029
 H         2.593097         2.801137         0.197895
 H         2.151129         1.509463         3.112791
 H        -0.756496        -0.958902        -0.065959
 H        -0.492466         0.668936        -0.627850
 H         0.763721        -0.570401        -1.091349
 H         1.425673        -2.117782         2.089023
 H         2.452695        -1.947501         0.640736
 H         4.164723         0.053750         3.245345
