19
Iteration:  3598charge 0 multiplicity 1
 C         2.924224         1.877223         0.211443
 C         2.390411         0.664690         0.997074
 C         1.891317         0.859704         2.402888
 O         0.546899         0.560569         2.172069
 C         1.133152        -0.124439         0.922580
 C         0.138630        -0.230849        -0.252549
 C         1.785050        -1.500708         1.467116
 C         2.734133        -0.364055         2.029782
 O         4.026136        -0.572499         2.672507
 H         4.036653         2.107118         0.544319
 H         2.918217         1.637293        -0.879813
 H         2.255026         2.807019         0.382164
 H         2.213684         1.505825         3.302707
 H        -0.480414        -1.075891        -0.171096
 H        -0.507356         0.720908        -0.197266
 H         0.620682        -0.211755        -1.169676
 H         1.213407        -2.293376         2.003964
 H         2.238292        -2.170876         0.603458
 H         3.735028        -1.079160         3.437687
