19
Iteration:  2959charge 0 multiplicity 1
 C         2.831947         1.746471         0.113754
 C         2.371121         0.717206         1.107122
 C         1.867054         0.734198         2.539910
 O         0.482188         0.362517         2.241797
 C         1.108548        -0.078397         0.874711
 C         0.206207        -0.004992        -0.306183
 C         1.839023        -1.341190         1.355397
 C         2.786344        -0.398212         2.068764
 O         4.036390        -0.571057         2.671089
 H         3.807773         2.096385         0.472487
 H         3.187588         1.051797        -0.809424
 H         2.190161         2.683925        -0.105177
 H         2.330121         1.351662         3.377398
 H        -0.815453        -0.357719        -0.146970
 H         0.158657         1.048005        -0.529931
 H         0.626396        -0.456709        -1.233013
 H         1.187895        -2.112497         1.967009
 H         2.259645        -1.806277         0.453038
 H         4.016033        -0.736588         3.622965
