19
Iteration:  2404charge 0 multiplicity 1
 C         3.057398         1.707892         0.157887
 C         2.324657         0.826535         1.084589
 C         1.778767         0.677631         2.525904
 O         0.493960         0.359739         2.247128
 C         1.057639        -0.180509         0.896016
 C         0.115335        -0.041894        -0.263049
 C         1.881783        -1.357327         1.341088
 C         2.770839        -0.357346         2.054279
 O         4.014409        -0.454644         2.629617
 H         3.730052         2.435970         0.810221
 H         3.484375         1.249468        -0.838062
 H         2.337118         2.552244        -0.199732
 H         2.063329         1.156788         3.462621
 H        -0.854694        -0.540489        -0.189160
 H         0.042761         1.047668        -0.383024
 H         0.689393        -0.418457        -1.077369
 H         1.383139        -2.183247         1.789926
 H         2.364065        -1.943394         0.513496
 H         4.155248        -1.205506         3.237886
