19
Iteration:  2796
 C         2.859694         1.715320         0.156196
 C         2.317993         0.776712         1.155189
 C         1.829511         0.795360         2.504231
 O         0.490729         0.401862         2.240597
 C         1.106185        -0.158185         0.913484
 C         0.132048         0.008125        -0.298052
 C         1.903290        -1.336988         1.321447
 C         2.865859        -0.287129         2.000756
 O         4.035434        -0.690435         2.653977
 H         3.734087         2.251332         0.636873
 H         3.389300         1.228353        -0.709193
 H         2.230053         2.632677        -0.219000
 H         1.950865         1.411885         3.381195
 H        -0.850014        -0.571659        -0.034435
 H        -0.146110         1.101700        -0.384911
 H         0.600366        -0.418662        -1.259257
 H         1.415633        -2.053309         2.008313
 H         2.506954        -1.817675         0.583651
 H         3.945624        -1.378229         3.358463
