19
Iteration:  4252
 C         3.020064         1.742333         0.187086
 C         2.342626         0.779176         1.122072
 C         1.943100         0.816514         2.506239
 O         0.461541         0.512235         2.237648
 C         0.985064        -0.023734         0.969708
 C         0.005467        -0.025020        -0.196277
 C         1.807608        -1.325053         1.408600
 C         2.848981        -0.445398         2.001772
 O         4.107839        -0.833833         2.443956
 H         3.725587         2.476309         0.657533
 H         3.668472         1.202965        -0.532421
 H         2.113773         2.321676        -0.350084
 H         2.112956         1.625613         3.198910
 H        -0.904729        -0.741103         0.087216
 H        -0.208694         1.132677        -0.333988
 H         0.732075        -0.346106        -0.975204
 H         1.390776        -2.081679         2.072493
 H         2.191654        -1.939877         0.573026
 H         4.003754        -0.806635         3.414011
