19
Iteration:  4759charge 0 multiplicity 1
 C         3.122548         1.686839         0.185749
 C         2.288307         0.672065         1.051655
 C         1.793141         0.736330         2.497618
 O         0.400505         0.472636         2.131067
 C         0.999274        -0.186687         0.935054
 C         0.138052        -0.029429        -0.127889
 C         1.923898        -1.441661         1.434646
 C         2.810710        -0.372372         2.013533
 O         4.026898        -0.373416         2.543337
 H         3.485943         2.555935         0.906857
 H         3.994219         0.981026        -0.266071
 H         2.608212         2.078756        -0.666835
 H         2.179912         1.299022         3.357153
 H        -0.851514        -0.496777         0.193708
 H        -0.074204         0.938364        -0.465076
 H         0.474931        -0.757969        -0.963227
 H         1.327921        -2.242029         2.056252
 H         2.468993        -1.801137         0.566774
 H         3.998931        -0.984430         3.311524
