19
Iteration:  2975charge 0 multiplicity 1
 C         2.905796         1.801163         0.095816
 C         2.343088         0.794133         1.096270
 C         1.827027         0.775961         2.472791
 O         0.503803         0.347091         2.174919
 C         1.036718        -0.160909         0.945493
 C         0.198503         0.083365        -0.320398
 C         1.805118        -1.438436         1.453898
 C         2.840687        -0.376637         2.066623
 O         4.123125        -0.655814         2.679355
 H         3.709516         2.475511         0.457040
 H         3.040641         1.486337        -0.819775
 H         2.047288         2.345447        -0.116001
 H         1.826232         1.520097         3.225395
 H        -0.781962        -0.427646        -0.213897
 H        -0.105934         1.149489        -0.554732
 H         0.724379        -0.424889        -1.132145
 H         1.243107        -2.067924         2.153057
 H         2.361480        -2.094571         0.723189
 H         3.799410        -0.843624         3.597192
