19
Iteration:   483
 C         3.086742         1.953951         0.440518
 C         2.344058         0.863319         1.166345
 C         1.818314         0.602070         2.522168
 O         0.479796         0.159960         2.267948
 C         0.929703        -0.158447         0.888192
 C         0.113289         0.006521        -0.299659
 C         1.879888        -1.382822         1.173915
 C         2.845110        -0.308632         1.891427
 O         3.971723        -0.558848         2.673375
 H         3.897148         2.486680         0.923269
 H         3.471621         1.708649        -0.616591
 H         2.358461         2.657486         0.239079
 H         1.995616         0.998154         3.572750
 H        -0.753492        -0.655857        -0.284125
 H        -0.311420         1.000802        -0.511514
 H         0.820241        -0.291079        -1.070528
 H         1.507367        -2.246466         1.820576
 H         2.231024        -1.768213         0.203222
 H         4.714959        -0.500355         1.990132
