19
Iteration:   159charge 0 multiplicity 1
 C         2.895674         1.987171         0.387250
 C         2.178609         0.909320         1.250467
 C         1.752081         0.577823         2.665407
 O         0.473211        -0.045710         2.324447
 C         1.049492        -0.170763         0.847651
 C         0.233454         0.169120        -0.394816
 C         2.012539        -1.274611         1.097575
 C         2.786849        -0.276994         2.018987
 O         4.059731        -0.682826         2.528371
 H         3.773654         2.275060         0.987467
 H         3.238069         1.655469        -0.560089
 H         2.356520         2.967154         0.231258
 H         1.705099         0.851965         3.744594
 H        -0.831178        -0.083558        -0.228517
 H         0.229350         1.296240        -0.472571
 H         0.724368        -0.346125        -1.276221
 H         1.463795        -2.149974         1.635665
 H         2.511410        -1.857094         0.261578
 H         4.759750        -0.099045         2.280126
