19
Iteration:  3574charge 0 multiplicity 1
 C         3.048194         1.807945         0.213740
 C         2.387222         0.697417         1.053598
 C         1.906689         0.707109         2.460425
 O         0.525638         0.471801         2.131780
 C         0.978397        -0.062886         0.950664
 C         0.048191        -0.264802        -0.314856
 C         1.824105        -1.311912         1.404261
 C         2.789377        -0.386605         2.022389
 O         4.068397        -0.507095         2.700560
 H         4.120175         1.901599         0.224800
 H         2.673892         1.589336        -0.812516
 H         2.553281         2.847236         0.540205
 H         2.257092         1.443820         3.229343
 H        -0.645035        -1.193025        -0.191806
 H        -0.595361         0.628921        -0.313646
 H         0.620673        -0.193444        -1.241009
 H         1.198259        -1.905605         2.112293
 H         2.041747        -2.107276         0.720357
 H         3.860818        -0.749619         3.641021
