19
Iteration:  4278charge 0 multiplicity 1
 C         3.176319         1.762808         0.245957
 C         2.378542         0.746444         1.078198
 C         1.939110         0.807849         2.505772
 O         0.524670         0.544576         2.224469
 C         1.028808        -0.109929         0.917455
 C        -0.025473        -0.119675        -0.132080
 C         1.727723        -1.386480         1.398835
 C         2.728155        -0.455305         2.021050
 O         4.021946        -0.608865         2.372298
 H         4.065316         1.931847         0.911937
 H         3.683477         1.506073        -0.751912
 H         2.644053         2.627834         0.176792
 H         2.241541         1.394133         3.403425
 H        -0.769059        -0.906030         0.090210
 H        -0.451058         0.856333         0.058613
 H         0.442806        -0.165101        -1.116241
 H         1.169587        -1.935974         2.163977
 H         2.117237        -2.087439         0.645417
 H         4.039792        -1.207837         3.147112
