19
Iteration:  3794charge 0 multiplicity 1
 C         2.937707         1.793234         0.199914
 C         2.461058         0.764840         1.048318
 C         1.877373         0.838468         2.455896
 O         0.520309         0.500594         2.156084
 C         1.048830        -0.156129         0.953542
 C         0.167352        -0.115409        -0.212751
 C         1.759787        -1.358768         1.474682
 C         2.776387        -0.351591         2.063006
 O         4.013837        -0.702248         2.527074
 H         2.126081         2.470083        -0.097502
 H         3.748719         2.444858         0.530528
 H         3.377320         1.262954        -0.741887
 H         1.983007         1.500678         3.267872
 H        -0.679580        -0.932987         0.003507
 H        -0.370855         0.966776        -0.286712
 H         0.767366        -0.365491        -1.112396
 H         1.262049        -2.020295         2.260199
 H         2.333330        -2.007237         0.770590
 H         3.936814        -1.138078         3.390379
