19
Iteration:  3262
 C         3.232392         1.620531         0.348717
 C         2.258252         0.796240         1.063260
 C         1.696136         0.776946         2.565970
 O         0.471170         0.339647         2.122555
 C         1.084822        -0.140641         0.839682
 C        -0.029702        -0.136049        -0.219344
 C         1.899449        -1.307963         1.364467
 C         2.736023        -0.284067         2.122608
 O         4.107756        -0.471297         2.456529
 H         4.154720         2.011577         0.894656
 H         3.648941         1.002689        -0.423973
 H         2.845956         2.511366        -0.038511
 H         1.869462         1.493438         3.336615
 H        -0.807652        -0.666581         0.190664
 H        -0.334728         0.785189        -0.593894
 H         0.276045        -0.608247        -1.100469
 H         1.371116        -1.985903         2.057932
 H         2.568731        -1.883963         0.677389
 H         3.981628        -0.521240         3.411735
