19
Iteration:  1241
 C         2.980728         1.872922         0.521878
 C         2.343912         0.825610         1.263273
 C         1.764903         0.618182         2.598968
 O         0.386281         0.328385         2.051834
 C         1.100059        -0.147356         0.840265
 C         0.086791        -0.111660        -0.278078
 C         1.952843        -1.339713         1.244230
 C         2.778960        -0.374654         2.018718
 O         4.125923        -0.494480         2.450474
 H         3.918967         2.295273         0.917225
 H         3.253666         1.368413        -0.441349
 H         2.232346         2.521475         0.341413
 H         1.819895         1.325682         3.529672
 H        -0.874492        -0.553160         0.007070
 H         0.041831         0.877009        -0.676002
 H         0.391660        -0.705504        -1.094581
 H         1.529293        -2.067183         1.841143
 H         2.563243        -1.645078         0.357594
 H         4.197992        -0.950317         3.372345
