19
Iteration:   534
 C         2.854379         1.830045         0.289955
 C         2.411850         0.792344         1.303472
 C         1.756825         0.626170         2.601896
 O         0.436030         0.213343         2.078054
 C         1.069371        -0.032926         0.858133
 C         0.031405         0.049168        -0.248670
 C         2.097853        -1.246146         1.073590
 C         2.854664        -0.442634         2.127209
 O         4.029564        -0.614456         2.755523
 H         3.798439         2.346173         0.538407
 H         2.952235         1.239989        -0.683757
 H         2.237226         2.748399        -0.076439
 H         1.894585         1.151572         3.506336
 H        -1.005295        -0.448282         0.003573
 H        -0.196729         1.108063        -0.163445
 H         0.403143         0.064205        -1.228387
 H         1.726030        -2.229077         1.216824
 H         2.636029        -1.411747         0.073653
 H         4.556503        -1.144921         2.136351
