19
Iteration:  4660
 C         3.018457         1.748588         0.230418
 C         2.482850         0.710320         1.045711
 C         1.917121         0.776990         2.455381
 O         0.520519         0.453169         2.216655
 C         1.045662        -0.065181         0.847880
 C        -0.027839        -0.161599        -0.246502
 C         1.793749        -1.337988         1.399297
 C         2.787261        -0.346147         2.052442
 O         4.043812        -0.575326         2.624594
 H         2.244131         2.393832        -0.338542
 H         3.560557         2.452783         1.011841
 H         3.698449         1.340726        -0.480880
 H         2.186590         1.462430         3.249598
 H        -0.586003        -1.112763        -0.089064
 H        -0.784370         0.505094        -0.210394
 H         0.402390        -0.329285        -1.266565
 H         0.979739        -2.054919         1.884407
 H         2.400123        -1.728623         0.546983
 H         4.037342        -0.941473         3.526899
