19
Iteration:  3282charge 0 multiplicity 1
 C         3.281440         1.533409         0.284915
 C         2.310795         0.909565         1.203453
 C         1.729463         0.788424         2.570742
 O         0.375961         0.320896         2.156819
 C         1.038498        -0.084687         0.931541
 C         0.016577        -0.196868        -0.256403
 C         1.867558        -1.354207         1.284286
 C         2.787289        -0.328245         2.079432
 O         4.070750        -0.356986         2.466510
 H         4.341485         1.604652         0.825084
 H         3.417999         0.944278        -0.638699
 H         2.937247         2.493442         0.058335
 H         1.877907         1.320474         3.545023
 H        -0.954605        -0.455240         0.102897
 H        -0.138330         0.786149        -0.810219
 H         0.300391        -0.816579        -1.034887
 H         1.469890        -2.145491         1.809638
 H         2.326737        -1.654228         0.368134
 H         4.256155        -0.769566         3.334309
