19
Iteration:   861charge 0 multiplicity 1
 C         3.043666         2.103809         0.471589
 C         2.190097         0.995032         1.169208
 C         1.854131         0.625783         2.533747
 O         0.409118         0.036453         2.288610
 C         1.080672        -0.089497         0.866849
 C         0.159942        -0.082760        -0.365567
 C         1.969631        -1.413485         1.120241
 C         2.812008        -0.346024         1.911865
 O         3.986859        -0.569526         2.642364
 H         3.795255         2.402887         1.229369
 H         3.484780         1.755453        -0.413014
 H         2.513255         3.174930         0.414962
 H         1.934289         0.923026         3.495371
 H        -0.831987        -0.585804         0.030256
 H        -0.158760         0.994891        -0.427873
 H         0.584534        -0.448424        -1.300664
 H         1.460843        -2.232878         1.659997
 H         2.472769        -1.669626         0.114693
 H         4.449483        -1.379286         2.520835
