19
Iteration:  1989
 C         2.982623         1.801844         0.301869
 C         2.283026         0.751434         1.179169
 C         1.752613         0.832070         2.501938
 O         0.482862         0.319103         2.157252
 C         1.077399        -0.127192         0.928159
 C         0.186817        -0.103295        -0.353643
 C         1.952238        -1.387065         1.475164
 C         2.783969        -0.325759         2.058500
 O         4.025715        -0.558100         2.495436
 H         3.923766         2.218595         0.688570
 H         3.102465         1.184349        -0.697287
 H         2.370592         2.675913         0.106733
 H         1.914107         1.732873         3.208371
 H        -0.524012        -0.954652        -0.450107
 H        -0.422072         0.777965        -0.164820
 H         0.694051         0.167809        -1.303746
 H         1.325971        -2.130581         2.015073
 H         2.493832        -1.899482         0.673620
 H         4.128308        -1.325185         3.098337
