19
Iteration:   118
 C         2.780837         1.977513         0.507486
 C         2.304807         0.774654         1.294866
 C         1.747771         0.466279         2.710347
 O         0.306595         0.308865         2.179001
 C         1.102558        -0.145229         0.910659
 C         0.238884         0.095629        -0.363905
 C         1.926041        -1.394415         1.117560
 C         2.843211        -0.418792         1.986145
 O         4.221599        -0.619771         2.467896
 H         3.620281         2.601159         0.984123
 H         3.090986         1.632789        -0.601021
 H         1.997184         2.647893         0.367144
 H         1.938980         0.781665         3.701679
 H        -0.517240        -0.583872        -0.710473
 H        -0.154838         1.150965        -0.197203
 H         0.868983         0.151107        -1.351027
 H         1.362133        -2.329761         1.393682
 H         2.645886        -1.669039         0.239313
 H         4.731905         0.235688         2.582487
