19
Iteration:  3019charge 0 multiplicity 1
 C         3.010480         1.804261         0.257620
 C         2.418965         0.720116         1.103186
 C         1.878644         0.855934         2.531111
 O         0.492395         0.470635         2.150801
 C         1.029664        -0.082185         0.916998
 C         0.071767        -0.213360        -0.279878
 C         1.802608        -1.376140         1.337202
 C         2.769846        -0.403686         2.087614
 O         4.061144        -0.589041         2.566196
 H         3.704008         2.335960         0.973773
 H         3.661525         1.499503        -0.508735
 H         2.332789         2.468504        -0.225649
 H         2.049620         1.574005         3.371408
 H        -0.588550        -1.111417        -0.214754
 H        -0.620039         0.694179        -0.381426
 H         0.785308        -0.307193        -1.084613
 H         1.164595        -2.101534         1.972453
 H         2.221120        -1.916894         0.404471
 H         4.020359        -0.968009         3.483134
