19
Iteration:  2726
 C         3.074007         1.806455         0.217150
 C         2.333083         0.757755         1.076394
 C         1.807530         0.747379         2.510846
 O         0.478560         0.356302         2.242676
 C         0.984142        -0.156078         0.900145
 C         0.065224        -0.057060        -0.307113
 C         1.884522        -1.348982         1.365893
 C         2.724660        -0.321188         2.040246
 O         4.117259        -0.628892         2.557331
 H         3.951163         2.002795         0.763590
 H         3.418303         1.479728        -0.811557
 H         2.616792         2.721710         0.291200
 H         1.865000         1.473289         3.375707
 H        -0.836116        -0.608136        -0.162853
 H        -0.167842         1.006992        -0.361752
 H         0.583501        -0.348308        -1.175705
 H         1.402832        -2.056870         2.189342
 H         2.471427        -1.921754         0.604944
 H         4.051110        -0.604685         3.550377
