19
Iteration:  2101
 C         3.000075         1.898640         0.258094
 C         2.354782         0.789909         1.059747
 C         1.807084         0.764544         2.513314
 O         0.475243         0.340746         2.032259
 C         1.145709        -0.093718         0.862233
 C        -0.004915        -0.137196        -0.208361
 C         1.970528        -1.396662         1.373350
 C         2.751490        -0.373937         2.096421
 O         4.035964        -0.651453         2.665790
 H         3.783348         2.395981         0.953616
 H         3.514763         1.523495        -0.634638
 H         2.380695         2.829874         0.035564
 H         2.045098         1.374968         3.309662
 H        -0.684108        -0.714260         0.410431
 H        -0.595591         0.711278        -0.601344
 H         0.257332        -0.739519        -1.072721
 H         1.362882        -2.170941         1.893465
 H         2.554598        -1.724403         0.451938
 H         4.273925        -0.014306         3.333601
