19
Iteration:  3490charge 0 multiplicity 1
 C         3.218000         1.555983         0.240439
 C         2.328345         0.789414         1.150599
 C         1.776830         0.671197         2.571910
 O         0.473065         0.347538         2.175980
 C         1.031604        -0.101958         0.960211
 C         0.106168        -0.083708        -0.253238
 C         1.767683        -1.437453         1.336048
 C         2.734206        -0.355723         2.023719
 O         4.033574        -0.219951         2.495457
 H         4.223039         1.719088         0.794077
 H         3.519043         1.050189        -0.664779
 H         2.849721         2.467048        -0.054542
 H         2.113579         1.250168         3.459505
 H        -0.794585        -0.438743         0.159441
 H        -0.168298         0.877438        -0.840289
 H         0.368542        -0.890048        -0.915331
 H         1.209855        -2.114763         1.926316
 H         2.394120        -1.723427         0.439061
 H         3.988241        -0.750777         3.306135
