19
Iteration:  3153charge 0 multiplicity 1
 C         2.885712         1.713325         0.134493
 C         2.316646         0.772552         1.147835
 C         1.820467         0.805028         2.528099
 O         0.477511         0.406857         2.219887
 C         1.052488        -0.127459         0.934723
 C         0.188310        -0.090991        -0.347337
 C         1.913991        -1.294743         1.398703
 C         2.801566        -0.319649         2.068296
 O         4.068746        -0.670689         2.602059
 H         3.933171         2.039824         0.530509
 H         3.047282         1.177363        -0.789658
 H         2.237617         2.605993         0.049910
 H         2.008919         1.614773         3.356245
 H        -0.796791        -0.621957        -0.412672
 H         0.051867         1.008398        -0.487084
 H         0.755405        -0.451873        -1.245776
 H         1.263946        -2.018993         2.015253
 H         2.531517        -1.885787         0.613106
 H         3.846685        -0.816879         3.555362
