19
Iteration:  2734
 C         2.971548         1.793933         0.224541
 C         2.342129         0.788316         1.112783
 C         1.859343         0.724815         2.469021
 O         0.480799         0.346973         2.196850
 C         0.968877        -0.108338         0.918126
 C         0.077321         0.023796        -0.298879
 C         1.875889        -1.384650         1.397342
 C         2.823591        -0.392153         2.026908
 O         4.078567        -0.601926         2.584248
 H         4.019607         1.940433         0.732796
 H         3.171876         1.268937        -0.667882
 H         2.480749         2.758496         0.137956
 H         2.030190         1.461874         3.341529
 H        -0.763646        -0.613171        -0.189920
 H        -0.144096         1.025319        -0.609287
 H         0.621612        -0.413072        -1.166078
 H         1.467617        -2.184691         2.155882
 H         2.541645        -2.020567         0.704306
 H         3.966689        -0.566554         3.572680
