19
Iteration:  4133charge 0 multiplicity 1
 C         3.301620         1.651011         0.326419
 C         2.334542         0.790730         1.104198
 C         1.871386         0.810267         2.532699
 O         0.468731         0.525437         2.264128
 C         0.927233        -0.059463         0.973821
 C        -0.076742        -0.130549        -0.177298
 C         1.708712        -1.286458         1.387795
 C         2.738751        -0.407622         1.900120
 O         4.165355        -0.615031         2.350682
 H         4.260506         1.739876         0.872247
 H         3.590128         0.968508        -0.514797
 H         2.895209         2.591269        -0.062050
 H         1.995393         1.340370         3.455519
 H        -0.657249        -1.077405         0.136759
 H        -0.780430         0.770122        -0.334593
 H         0.538262        -0.384668        -1.027875
 H         1.446472        -2.102595         2.103468
 H         2.077971        -1.815029         0.449377
 H         4.188769        -1.071133         3.215146
