19
Iteration:  3362
 C         2.939500         1.830368         0.201515
 C         2.341546         0.756485         1.033663
 C         1.843683         0.807674         2.424552
 O         0.529961         0.440101         2.100451
 C         1.108888        -0.161186         0.928002
 C         0.143313        -0.115734        -0.222927
 C         1.870464        -1.429833         1.441478
 C         2.759877        -0.325030         2.105787
 O         3.985655        -0.636060         2.631736
 H         3.984422         2.180384         0.495328
 H         3.048515         1.344693        -0.783601
 H         2.336534         2.774653         0.024701
 H         1.864375         1.411397         3.334692
 H        -0.673444        -0.817549        -0.207155
 H        -0.254686         0.872522        -0.200167
 H         0.680609        -0.313972        -1.183531
 H         1.313405        -2.135680         2.083609
 H         2.525839        -2.150090         0.918006
 H         4.205709        -0.457034         3.564944
