19
Iteration:  1267
 C         3.055355         1.935051         0.386903
 C         2.288346         0.851028         1.086006
 C         1.754201         0.765149         2.510673
 O         0.459185         0.141237         2.193746
 C         1.064282        -0.156167         0.866543
 C         0.099517        -0.030514        -0.263637
 C         1.958980        -1.397602         1.244100
 C         2.722043        -0.332115         2.057251
 O         4.066226        -0.536562         2.653414
 H         3.869614         2.258290         1.024661
 H         3.447900         1.462615        -0.506387
 H         2.307003         2.794289         0.048481
 H         1.737092         1.226559         3.421713
 H        -0.779921        -0.607452        -0.027478
 H        -0.155138         1.018740        -0.482543
 H         0.464521        -0.489249        -1.238251
 H         1.529218        -2.283763         1.836559
 H         2.626629        -1.615336         0.420244
 H         4.598012        -1.132955         2.013586
