19
Iteration:   140
 C         2.792734         1.930740         0.471924
 C         2.226616         0.843309         1.317604
 C         1.737658         0.566234         2.672550
 O         0.495037         0.008114         2.225192
 C         1.096066        -0.033913         0.936707
 C         0.351181         0.200179        -0.333443
 C         1.971716        -1.366333         1.188836
 C         2.733599        -0.392986         1.924742
 O         4.031740        -0.623746         2.442945
 H         3.743556         2.487914         0.786804
 H         3.019186         1.403661        -0.576375
 H         2.128050         2.694364         0.243768
 H         2.040070         1.210924         3.424213
 H        -0.586166        -0.328898        -0.380421
 H         0.196861         1.314033        -0.517587
 H         1.032205        -0.274184        -1.152292
 H         1.537998        -2.323547         1.539122
 H         2.483398        -1.635783         0.161538
 H         4.423182         0.240877         2.354947
