19
Iteration:  4618
 C         2.994526         1.923573         0.176544
 C         2.395539         0.699298         0.987599
 C         1.891910         0.860809         2.429250
 O         0.474281         0.490610         2.183689
 C         1.052625        -0.118468         0.943447
 C         0.071566        -0.153997        -0.233467
 C         1.838070        -1.364687         1.469313
 C         2.818482        -0.371113         2.047284
 O         4.052189        -0.766634         2.617386
 H         2.216169         2.050988        -0.611347
 H         2.889525         2.841282         0.830350
 H         3.908177         1.732888        -0.275723
 H         2.229687         1.475344         3.262128
 H        -0.703228        -0.913604        -0.130162
 H        -0.415209         0.822587        -0.334825
 H         0.569616        -0.329592        -1.229518
 H         1.466526        -1.983087         2.355554
 H         2.359124        -1.942810         0.730282
 H         3.677862        -1.116372         3.454091
