19
Iteration:  3953
 C         3.163930         1.712486         0.279936
 C         2.348063         0.718558         1.056899
 C         1.893347         0.823684         2.526821
 O         0.492009         0.549848         2.224651
 C         0.953780        -0.134165         0.984609
 C         0.021929        -0.146396        -0.221224
 C         1.734318        -1.369128         1.408562
 C         2.770857        -0.431466         1.949676
 O         4.114616        -0.558647         2.465733
 H         2.926858         1.608111        -0.768216
 H         3.050117         2.757138         0.546880
 H         4.189096         1.462820         0.423571
 H         2.321605         1.521637         3.239288
 H        -0.744155        -0.970643        -0.183992
 H        -0.609408         0.751042        -0.320923
 H         0.603172        -0.417812        -1.207481
 H         1.220813        -1.924847         2.165486
 H         1.997417        -1.936395         0.553368
 H         4.073528        -0.858419         3.390046
