19
Iteration:  1590
 C         3.028836         1.817960         0.231537
 C         2.349573         0.783162         1.150658
 C         1.781256         0.643579         2.546067
 O         0.402086         0.417014         2.115176
 C         1.044848         0.011716         0.893433
 C         0.097196        -0.176980        -0.184702
 C         1.851026        -1.413717         1.236976
 C         2.846567        -0.402436         2.065020
 O         4.084103        -0.577236         2.687409
 H         4.050340         2.194898         0.523672
 H         3.232632         1.289059        -0.724601
 H         2.432704         2.721755         0.010898
 H         1.874615         1.477112         3.326182
 H        -0.587648        -0.996223         0.042802
 H        -0.473502         0.781917        -0.276259
 H         0.694468        -0.287692        -1.137360
 H         1.370815        -2.262501         1.732665
 H         2.489499        -1.934037         0.413376
 H         4.509417         0.342957         2.697230
