19
Iteration:  3011charge 0 multiplicity 1
 C         2.983147         1.806100         0.235252
 C         2.368629         0.717186         1.093465
 C         1.835074         0.798268         2.518066
 O         0.517951         0.477889         2.136085
 C         1.051510        -0.138189         0.927291
 C         0.138015        -0.128736        -0.249573
 C         1.822159        -1.413521         1.373056
 C         2.768101        -0.332592         2.084488
 O         4.031424        -0.624086         2.565855
 H         3.610352         2.492870         0.850813
 H         3.624658         1.457219        -0.503832
 H         2.205346         2.456152        -0.039148
 H         2.291505         1.707263         3.084426
 H        -0.446295        -1.058006        -0.122762
 H        -0.501706         0.762696        -0.379081
 H         0.630325        -0.290574        -1.201595
 H         1.199490        -2.019254         1.908460
 H         2.323118        -1.957419         0.617227
 H         4.042857        -0.985325         3.478636
