19
Iteration:  2080
 C         3.103591         1.798935         0.356328
 C         2.390906         0.786710         1.134222
 C         1.749831         0.780456         2.491553
 O         0.441558         0.332988         2.100360
 C         1.066930        -0.252518         0.868503
 C        -0.041944        -0.165785        -0.195770
 C         1.989041        -1.313673         1.284844
 C         2.797150        -0.286630         1.958581
 O         4.044192        -0.588729         2.646952
 H         3.908001         2.454714         0.865367
 H         3.498472         1.190342        -0.427713
 H         2.420249         2.680289        -0.032918
 H         1.820914         1.513862         3.258029
 H        -0.973145        -0.419367         0.287153
 H        -0.073263         0.923229        -0.475025
 H         0.118609        -0.675127        -1.139444
 H         1.336234        -2.058008         1.737373
 H         2.648730        -1.747850         0.453160
 H         4.225758        -0.022114         3.445327
