19
Iteration:  4418charge 0 multiplicity 1
 C         2.892875         1.797959         0.124109
 C         2.404791         0.714437         1.071408
 C         1.937270         0.809393         2.493367
 O         0.547298         0.498453         2.194347
 C         1.051855        -0.132246         0.853141
 C         0.075474         0.052007        -0.257256
 C         1.726791        -1.423651         1.484107
 C         2.752309        -0.416759         2.083324
 O         4.171511        -0.703924         2.603180
 H         3.772727         1.514196        -0.518779
 H         1.981126         2.052912        -0.530485
 H         2.968675         2.654768         0.777019
 H         2.282355         1.510498         3.250404
 H        -0.934064        -0.394930         0.160688
 H        -0.109838         1.118319        -0.432031
 H         0.533838        -0.560441        -1.094812
 H         1.002339        -2.005038         2.128119
 H         2.233389        -2.079243         0.715296
 H         4.052307        -1.408273         3.267677
