19
Iteration:  2727
 C         3.061047         1.806074         0.215951
 C         2.336592         0.759861         1.085219
 C         1.817495         0.743193         2.504718
 O         0.479873         0.355545         2.238383
 C         0.976245        -0.149502         0.902378
 C         0.067999        -0.045873        -0.307861
 C         1.883978        -1.353815         1.368032
 C         2.730240        -0.329638         2.037539
 O         4.116042        -0.626413         2.563015
 H         3.924768         1.986552         0.751726
 H         3.411637         1.422956        -0.815990
 H         2.596318         2.764962         0.300073
 H         1.862363         1.449156         3.338799
 H        -0.849467        -0.639121        -0.156603
 H        -0.155290         1.040047        -0.401431
 H         0.589099        -0.354058        -1.180237
 H         1.450927        -2.045726         2.168453
 H         2.477216        -1.932530         0.662675
 H         4.041960        -0.598856         3.544979
