19
Iteration:  1888
 C         2.993914         1.880586         0.272209
 C         2.328263         0.876796         1.126444
 C         1.776864         0.765169         2.539488
 O         0.523397         0.252339         2.191218
 C         1.116260        -0.198096         0.890039
 C         0.032788        -0.169165        -0.318854
 C         1.932631        -1.309525         1.359993
 C         2.816134        -0.274821         1.966163
 O         3.977952        -0.671711         2.603164
 H         3.734137         2.219688         0.980749
 H         3.660752         1.328004        -0.538489
 H         2.494552         2.765372         0.015236
 H         1.891973         1.263160         3.537007
 H        -0.943648        -0.262930         0.149987
 H         0.024129         0.845273        -0.752251
 H         0.181147        -0.757967        -1.219209
 H         1.483975        -1.959095         2.133293
 H         2.511733        -1.729486         0.576744
 H         4.343108         0.062686         3.089139
