19
Iteration:  1678charge 0 multiplicity 1
 C         3.000450         1.776960         0.327498
 C         2.338354         0.778054         1.164452
 C         1.831022         0.635031         2.604583
 O         0.437625         0.513216         2.145230
 C         1.121196        -0.079337         0.859917
 C         0.135581        -0.221337        -0.283291
 C         1.805065        -1.446144         1.335798
 C         2.760888        -0.420143         2.059840
 O         4.080950        -0.407574         2.521067
 H         3.752318         2.424208         0.819448
 H         3.460747         1.263659        -0.577516
 H         2.187560         2.462920        -0.018588
 H         1.982078         1.534554         3.328334
 H        -0.802147        -0.512289         0.111304
 H        -0.137217         0.818860        -0.607782
 H         0.442464        -0.704108        -1.223052
 H         1.369332        -2.230396         1.967582
 H         2.493433        -1.833085         0.525587
 H         4.411096        -1.255026         2.899845
