19
Iteration:  4834charge 0 multiplicity 1
 C         3.007108         1.872619         0.186829
 C         2.500797         0.773163         1.042733
 C         1.809167         0.791744         2.444118
 O         0.481899         0.591745         2.139579
 C         0.946022        -0.131940         0.940535
 C         0.146922        -0.289781        -0.193337
 C         1.860268        -1.463942         1.447973
 C         2.849182        -0.321963         1.967480
 O         3.981800        -0.653654         2.659169
 H         4.157042         1.873292         0.042088
 H         2.383207         1.824142        -0.760669
 H         2.648712         2.786041         0.642409
 H         2.001488         1.390409         3.341812
 H        -0.523490        -1.304115        -0.045983
 H        -0.493955         0.566244        -0.420292
 H         0.718547        -0.412806        -1.248419
 H         1.614018        -2.205099         2.192681
 H         2.190407        -2.043820         0.595487
 H         3.822467        -0.309826         3.553684
