19
Iteration:  3286
 C         3.309138         1.529267         0.274367
 C         2.304202         0.890192         1.182251
 C         1.699972         0.793143         2.587810
 O         0.377411         0.333266         2.182473
 C         1.042718        -0.086488         0.960856
 C         0.025945        -0.170314        -0.247505
 C         1.884246        -1.353354         1.246959
 C         2.751273        -0.357133         2.082073
 O         4.072758        -0.332395         2.467437
 H         4.307571         1.685326         0.640415
 H         3.374623         0.944770        -0.625278
 H         3.002482         2.603632         0.127893
 H         1.929563         1.293090         3.473031
 H        -0.953697        -0.503623         0.098584
 H        -0.057685         0.662375        -0.859795
 H         0.405276        -0.904885        -1.035484
 H         1.484210        -2.230929         1.889073
 H         2.315003        -1.731708         0.253760
 H         4.140965        -0.833767         3.308432
