19
Iteration:  3952charge 0 multiplicity 1
 C         3.167794         1.709021         0.282403
 C         2.353982         0.715138         1.068807
 C         1.898961         0.816518         2.518916
 O         0.488960         0.548951         2.223184
 C         0.944766        -0.127278         0.986703
 C         0.019289        -0.155055        -0.226623
 C         1.738213        -1.364095         1.410891
 C         2.759698        -0.426122         1.945193
 O         4.120915        -0.554877         2.467949
 H         2.935278         1.625571        -0.787234
 H         3.066290         2.760014         0.558768
 H         4.151393         1.449502         0.433758
 H         2.330444         1.515443         3.231449
 H        -0.746527        -0.957437        -0.195395
 H        -0.614435         0.767034        -0.300852
 H         0.574758        -0.406567        -1.221592
 H         1.241599        -1.909524         2.130500
 H         1.978203        -1.966654         0.579357
 H         4.102414        -0.865437         3.385322
