19
Iteration:  1792
 C         3.008771         1.842508         0.239396
 C         2.349000         0.826793         1.125899
 C         1.876725         0.751626         2.522020
 O         0.451750         0.277037         2.174059
 C         1.022555        -0.136862         0.898401
 C         0.082765        -0.136081        -0.251436
 C         1.945229        -1.359293         1.334661
 C         2.778411        -0.307606         2.010446
 O         3.966135        -0.533277         2.666561
 H         3.946943         2.117293         0.755392
 H         3.347059         1.314474        -0.721999
 H         2.470110         2.751018         0.018760
 H         2.101476         1.505868         3.343639
 H        -0.618992        -1.031391        -0.303461
 H        -0.521875         0.747515        -0.252632
 H         0.788146        -0.062462        -1.096860
 H         1.403501        -2.025002         2.032162
 H         2.502498        -1.767583         0.510126
 H         4.494209        -1.293710         2.429972
