19
Iteration:  2432
 C         3.186805         1.579353         0.347642
 C         2.301274         0.822254         1.206640
 C         1.733541         0.783608         2.552236
 O         0.405019         0.323589         2.124872
 C         1.062292        -0.089037         0.875080
 C         0.001086        -0.084742        -0.198877
 C         1.910114        -1.358903         1.274504
 C         2.791803        -0.348045         2.025703
 O         4.101571        -0.439775         2.488234
 H         3.784593         2.071797         0.984512
 H         3.663690         1.051395        -0.376807
 H         2.579667         2.319873        -0.174274
 H         1.895245         1.591131         3.261324
 H        -0.872341        -0.707914         0.083993
 H        -0.207936         0.967960        -0.383126
 H         0.462605        -0.555060        -1.135162
 H         1.449306        -2.324731         1.753907
 H         2.404465        -1.749185         0.417743
 H         4.257819        -0.528005         3.469002
