19
Iteration:  4527
 C         3.297482         1.550689         0.287249
 C         2.391821         0.652117         1.021350
 C         1.812647         0.830659         2.539007
 O         0.466321         0.303214         2.233301
 C         1.030856        -0.170818         0.901387
 C        -0.018529         0.033848        -0.150140
 C         1.846901        -1.396141         1.362972
 C         2.621433        -0.307608         2.116862
 O         4.062959        -0.362594         2.423126
 H         2.872812         1.458333        -0.774289
 H         3.271851         2.702444         0.406881
 H         4.322141         1.212017         0.145829
 H         1.899693         1.651240         3.248258
 H        -0.919676        -0.562845         0.236650
 H        -0.238805         1.051683        -0.205400
 H         0.134852        -0.256587        -1.206590
 H         0.963644        -2.123934         1.719274
 H         2.534141        -1.672099         0.479577
 H         4.267572        -0.893186         3.213793
