19
Iteration:  2912
 C         3.192899         1.654399         0.259647
 C         2.288649         0.852517         1.110752
 C         1.777910         0.760327         2.538477
 O         0.417965         0.374712         2.178830
 C         1.005067        -0.129321         0.856670
 C         0.026429        -0.124527        -0.221104
 C         1.891240        -1.305228         1.312645
 C         2.776969        -0.306463         2.049366
 O         4.120468        -0.539791         2.550210
 H         4.231205         1.858185         0.792411
 H         3.438167         1.182831        -0.808833
 H         2.722962         2.665976         0.250611
 H         1.793810         1.336274         3.468206
 H        -0.795291        -0.720700         0.199072
 H        -0.407737         0.883952        -0.394201
 H         0.356777        -0.578520        -1.107763
 H         1.324783        -2.002152         1.863810
 H         2.464050        -1.765513         0.530064
 H         4.113622        -1.105432         3.370344
