19
Iteration:   218charge 0 multiplicity 1
 C         3.029609         2.160808         0.701268
 C         2.376994         0.840553         1.093915
 C         1.847307         0.524568         2.528720
 O         0.450848         0.194446         2.193030
 C         1.024556        -0.074780         0.770051
 C        -0.030267        -0.118885        -0.256284
 C         1.984818        -1.358385         1.047496
 C         2.819633        -0.444184         1.930685
 O         3.994301        -0.533609         2.647703
 H         3.806947         2.449666         1.441937
 H         3.619510         2.127120        -0.304203
 H         2.342430         2.948564         0.645953
 H         2.221242         1.125227         3.408062
 H        -0.601781        -1.016083         0.104212
 H        -0.686903         0.757582        -0.309584
 H         0.292314        -0.418302        -1.269948
 H         1.394929        -2.175258         1.485242
 H         2.654085        -1.657012         0.148606
 H         4.566308        -1.148435         2.120138
