19
Iteration:   663
 C         3.101580         1.970120         0.457798
 C         2.291654         0.909695         1.085270
 C         1.783044         0.686139         2.590559
 O         0.479114         0.124147         2.193001
 C         1.028755        -0.107670         0.886461
 C         0.003444        -0.096588        -0.265018
 C         1.986263        -1.320076         1.144831
 C         2.822975        -0.281936         1.943047
 O         3.929551        -0.673176         2.652183
 H         3.963429         2.115428         1.162273
 H         3.644567         1.798527        -0.424354
 H         2.526220         2.995312         0.338242
 H         2.112213         1.254707         3.489640
 H        -0.826638        -0.857960        -0.186398
 H        -0.314279         0.910061        -0.551778
 H         0.702086        -0.544025        -1.017836
 H         1.597860        -2.145132         1.760405
 H         2.506721        -1.729884         0.230395
 H         4.692284        -0.213255         2.276263
