19
Iteration:    36charge 0 multiplicity 1
 C         2.988849         2.108765         0.651528
 C         2.384434         0.882324         1.232371
 C         1.785806         0.538298         2.556239
 O         0.458755         0.265205         2.120930
 C         1.071232        -0.075581         0.808933
 C        -0.054128        -0.246787        -0.258050
 C         2.018616        -1.145024         0.993983
 C         2.880007        -0.356294         1.928042
 O         4.042679        -0.803135         2.592816
 H         3.716975         2.562660         1.285973
 H         3.443653         1.916514        -0.251955
 H         2.126721         2.880674         0.463768
 H         1.876921         1.112482         3.426391
 H        -0.440410        -1.305887        -0.287368
 H        -0.891690         0.317520         0.149061
 H         0.182166         0.153396        -1.213018
 H         1.690529        -2.160788         1.458808
 H         2.507685        -1.265990         0.038637
 H         4.238974        -0.159750         3.257622
