19
Iteration:  4928charge 0 multiplicity 1
 C         3.134349         1.461004         0.183757
 C         2.356576         0.792744         1.178973
 C         1.786076         0.832231         2.520299
 O         0.448456         0.250538         2.211173
 C         1.022315        -0.036792         0.935108
 C         0.163175        -0.155163        -0.326798
 C         1.822269        -1.319427         1.315202
 C         2.705831        -0.329926         2.182109
 O         4.043889        -0.262631         2.534781
 H         3.084556         0.890026        -0.725113
 H         2.652869         2.413685         0.084350
 H         4.248092         1.697150         0.386620
 H         1.850690         1.485001         3.410950
 H        -0.716257        -0.585580        -0.051980
 H        -0.112520         0.719271        -0.876051
 H         0.577881        -0.747234        -1.076842
 H         1.306039        -2.186406         1.835413
 H         2.595168        -1.733612         0.538539
 H         4.112892        -0.754615         3.389883
