19
Iteration:  2808
 C         3.015928         1.805956         0.190219
 C         2.345159         0.841729         1.067358
 C         1.790390         0.800200         2.504920
 O         0.456862         0.348309         2.203748
 C         1.051164        -0.112216         0.902536
 C         0.119448        -0.052006        -0.182599
 C         1.940642        -1.347995         1.414454
 C         2.796188        -0.330635         2.047622
 O         4.041216        -0.691990         2.567307
 H         3.923689         2.328079         0.707121
 H         3.337442         1.137926        -0.629598
 H         2.200742         2.500006        -0.324552
 H         2.140320         1.450401         3.361165
 H        -0.787938        -0.765007        -0.153603
 H        -0.201111         0.996531        -0.461488
 H         0.736717        -0.401416        -1.119102
 H         1.340956        -2.079190         1.873277
 H         2.380124        -1.768956         0.534320
 H         3.623240        -1.231344         3.255766
