19
Iteration:  4666
 C         3.051163         1.740047         0.215768
 C         2.413378         0.728695         1.059905
 C         1.872439         0.758217         2.437941
 O         0.508856         0.455190         2.232394
 C         1.058354        -0.066921         0.915892
 C        -0.022055        -0.166742        -0.268029
 C         1.799400        -1.319557         1.366381
 C         2.815529        -0.365537         2.128791
 O         4.067743        -0.566738         2.587824
 H         2.342196         2.410162        -0.182999
 H         3.706217         2.209114         0.874671
 H         3.719987         1.130708        -0.511104
 H         2.124503         1.541996         3.165609
 H        -0.564809        -1.127120        -0.068869
 H        -0.906200         0.661914        -0.437968
 H         0.335432        -0.296680        -1.287534
 H         1.154643        -2.045625         1.704576
 H         2.417060        -1.659590         0.525446
 H         3.961386        -0.805500         3.528051
