19
Iteration:  1985charge 0 multiplicity 1
 C         2.957203         1.812029         0.289260
 C         2.314561         0.779490         1.164746
 C         1.757185         0.860017         2.487792
 O         0.493464         0.309356         2.191362
 C         1.062872        -0.146082         0.901455
 C         0.178841        -0.092359        -0.344005
 C         1.928043        -1.428301         1.442323
 C         2.803864        -0.334811         2.066208
 O         4.032768        -0.556859         2.511936
 H         3.893583         2.172467         0.682228
 H         3.167166         1.223741        -0.612771
 H         2.421580         2.743876         0.125833
 H         1.888766         1.685857         3.236578
 H        -0.436913        -1.003302        -0.420024
 H        -0.540541         0.781129        -0.354504
 H         0.812312         0.176664        -1.208172
 H         1.256251        -2.071322         2.107441
 H         2.485292        -1.942070         0.654804
 H         3.971281        -1.279108         3.153517
