19
Iteration:  1984charge 0 multiplicity 1
 C         2.951353         1.809715         0.284646
 C         2.324072         0.788564         1.157494
 C         1.759629         0.867311         2.489604
 O         0.493280         0.307730         2.199383
 C         1.060077        -0.152358         0.894378
 C         0.176355        -0.088280        -0.340241
 C         1.917956        -1.436462         1.434495
 C         2.804531        -0.336178         2.068114
 O         4.038181        -0.555915         2.516544
 H         3.912926         2.156844         0.692038
 H         3.186942         1.262393        -0.586980
 H         2.405172         2.772587         0.119979
 H         1.876835         1.637366         3.224396
 H        -0.404491        -1.010066        -0.421590
 H        -0.562760         0.772536        -0.388131
 H         0.840115         0.157900        -1.182895
 H         1.266067        -2.043966         2.114749
 H         2.483363        -1.958168         0.643972
 H         3.934050        -1.276411         3.178771
