19
Iteration:  1422
 C         3.031999         1.861077         0.369300
 C         2.388198         0.840267         1.118614
 C         1.700346         0.783059         2.531233
 O         0.422330         0.313448         2.139461
 C         1.060588        -0.156980         0.901097
 C         0.047045        -0.110459        -0.262476
 C         1.986947        -1.380776         1.274629
 C         2.770101        -0.384262         2.028383
 O         4.109038        -0.524678         2.572017
 H         3.983475         2.159326         0.809419
 H         3.323013         1.485210        -0.547342
 H         2.248944         2.709750         0.317774
 H         1.945374         1.321740         3.512804
 H        -0.920260        -0.470267         0.147936
 H        -0.100713         0.845468        -0.793045
 H         0.254064        -0.882722        -1.005086
 H         1.580491        -2.287388         1.842053
 H         2.501648        -1.659050         0.346944
 H         4.227899        -1.333040         3.163694
