19
Iteration:  2405charge 0 multiplicity 1
 C         3.065016         1.709684         0.163337
 C         2.322225         0.820941         1.082442
 C         1.771074         0.676541         2.526583
 O         0.497393         0.361475         2.245971
 C         1.053557        -0.176558         0.904285
 C         0.109482        -0.037679        -0.267051
 C         1.891913        -1.362637         1.344717
 C         2.763930        -0.353356         2.055428
 O         4.014261        -0.453520         2.624007
 H         3.747354         2.438500         0.817645
 H         3.478587         1.239443        -0.834630
 H         2.357392         2.506754        -0.206048
 H         2.074233         1.138624         3.469969
 H        -0.859794        -0.563545        -0.181361
 H         0.019691         1.071443        -0.402887
 H         0.669828        -0.445831        -1.109572
 H         1.392609        -2.166431         1.759456
 H         2.386768        -1.945456         0.507519
 H         4.185871        -1.191173         3.258902
