19
Iteration:  4859charge 0 multiplicity 1
 C         3.028910         1.790894         0.218009
 C         2.290038         0.784931         1.004502
 C         1.914175         0.819597         2.481572
 O         0.518586         0.387492         2.159771
 C         1.082850        -0.186922         0.782984
 C         0.111440        -0.214630        -0.263506
 C         1.745636        -1.355799         1.445694
 C         2.789132        -0.296324         2.172278
 O         4.076389        -0.563181         2.649436
 H         4.022715         1.444439        -0.142855
 H         2.278009         1.850018        -0.683347
 H         3.048255         2.809778         0.660740
 H         2.217072         1.699700         3.057147
 H        -0.559580        -1.078219        -0.167459
 H        -0.484429         0.791717        -0.302080
 H         0.515360        -0.262666        -1.261787
 H         1.063810        -2.038337         2.058581
 H         2.259085        -2.082257         0.828413
 H         3.948547        -0.496421         3.617429
