19
Iteration:    40charge 0 multiplicity 1
 C         2.990434         2.113485         0.657126
 C         2.371324         0.907122         1.222075
 C         1.819717         0.554289         2.543201
 O         0.446022         0.239945         2.119437
 C         1.036784        -0.072833         0.798196
 C        -0.065500        -0.241464        -0.257109
 C         2.012265        -1.158820         1.006779
 C         2.871589        -0.306170         1.903936
 O         4.059628        -0.842563         2.621765
 H         3.752173         2.601479         1.330639
 H         3.536258         1.982685        -0.351471
 H         2.193684         2.857080         0.497737
 H         1.902917         1.128524         3.531426
 H        -0.429210        -1.291598        -0.299902
 H        -1.047723         0.205079         0.086426
 H         0.270908         0.184566        -1.246225
 H         1.791264        -2.149653         1.523180
 H         2.521292        -1.379492         0.009373
 H         4.348244        -0.132344         3.273745
