19
Iteration:   664charge 0 multiplicity 1
 C         3.099936         1.970992         0.453981
 C         2.283648         0.912448         1.085576
 C         1.778066         0.689635         2.583864
 O         0.488386         0.117477         2.190952
 C         1.032038        -0.114875         0.885582
 C         0.004299        -0.087771        -0.263883
 C         1.989908        -1.318224         1.149279
 C         2.814090        -0.287237         1.941423
 O         3.927665        -0.669234         2.655956
 H         3.951670         2.084037         1.154415
 H         3.647076         1.788728        -0.395977
 H         2.539686         3.003773         0.331461
 H         2.181693         1.253282         3.497933
 H        -0.846563        -0.853958        -0.210975
 H        -0.314362         0.915188        -0.540721
 H         0.707484        -0.534241        -0.962044
 H         1.616381        -2.131346         1.759751
 H         2.503971        -1.718803         0.220598
 H         4.687668        -0.242565         2.279965
