19
Iteration:  2220charge 0 multiplicity 1
 C         3.204761         1.674035         0.230191
 C         2.298926         0.792626         1.143120
 C         1.787388         0.792632         2.495239
 O         0.464513         0.235530         2.226399
 C         0.964098        -0.103122         0.958846
 C         0.086331        -0.046721        -0.273117
 C         1.929986        -1.415367         1.330154
 C         2.743064        -0.297493         2.023994
 O         3.995338        -0.375556         2.595147
 H         3.938289         2.340217         0.823396
 H         3.593482         1.240136        -0.708587
 H         2.568865         2.463323        -0.180553
 H         2.105271         1.289236         3.352374
 H        -0.779068        -0.812025        -0.189517
 H        -0.259075         0.982622        -0.696565
 H         0.722003        -0.578386        -1.050285
 H         1.527792        -2.341051         1.887274
 H         2.326227        -1.936612         0.325489
 H         4.085901        -1.229315         3.108777
