19
Iteration:  4535charge 0 multiplicity 1
 C         3.199843         1.534175         0.226079
 C         2.346623         0.675760         1.072263
 C         1.767467         0.817126         2.499984
 O         0.522659         0.290811         2.304487
 C         1.083700        -0.148081         0.821173
 C        -0.027967         0.062119        -0.192726
 C         1.792949        -1.352018         1.352165
 C         2.685433        -0.367606         2.159472
 O         4.074040        -0.353165         2.444310
 H         2.954576         1.537182        -0.797988
 H         3.373113         2.494337         0.589411
 H         4.306506         1.125392         0.347220
 H         1.985528         1.680501         3.123363
 H        -0.992216        -0.339939         0.021881
 H        -0.277624         1.110975        -0.435543
 H         0.228233        -0.408124        -1.103808
 H         1.313096        -2.164472         1.892099
 H         2.490035        -1.832113         0.630993
 H         4.260252        -0.931804         3.201682
