19
Iteration:  3890charge 0 multiplicity 1
 C         3.254121         1.566276         0.232149
 C         2.315719         0.788359         1.078562
 C         1.780212         0.833463         2.543676
 O         0.466123         0.416465         2.229124
 C         0.938436        -0.103448         0.915362
 C        -0.083733        -0.086542        -0.191101
 C         1.912775        -1.318722         1.308043
 C         2.761596        -0.270203         2.093086
 O         4.087988        -0.591725         2.447555
 H         3.101055         1.687265        -0.825102
 H         3.507737         2.512699         0.736424
 H         4.272290         0.944578         0.234129
 H         2.110294         1.562675         3.252521
 H        -0.783671        -0.774051         0.285111
 H        -0.497123         0.850773        -0.349359
 H         0.293685        -0.438990        -1.097801
 H         1.449892        -2.108200         2.045839
 H         2.514718        -1.632964         0.448784
 H         3.978311        -0.776394         3.390577
