19
Iteration:  4408charge 0 multiplicity 1
 C         2.860136         1.799996         0.111465
 C         2.391473         0.664605         1.075746
 C         1.946242         0.785107         2.458727
 O         0.559955         0.463073         2.208801
 C         1.103799        -0.075257         0.948755
 C         0.160962         0.019899        -0.197348
 C         1.742300        -1.432939         1.458358
 C         2.791574        -0.476960         2.119494
 O         4.025155        -0.620432         2.555293
 H         3.871955         1.541556        -0.357433
 H         2.198821         2.088076        -0.798078
 H         3.197310         2.685802         0.566753
 H         2.318720         1.527873         3.153906
 H        -0.946820        -0.224651         0.138965
 H         0.154436         1.104210        -0.412178
 H         0.180724        -0.379536        -1.268618
 H         1.024636        -2.044014         1.985318
 H         2.024467        -1.953611         0.538015
 H         4.032413        -1.316152         3.241505
