19
Iteration:    59
 C         3.051187         2.309229         0.622617
 C         2.237418         1.019040         1.127784
 C         1.794207         0.665858         2.491708
 O         0.527638         0.122520         2.195156
 C         1.032134        -0.067945         0.863085
 C        -0.036617        -0.197478        -0.301701
 C         2.080847        -1.360499         1.112409
 C         2.847987        -0.378608         1.921933
 O         3.960048        -0.880802         2.585594
 H         3.789306         2.490651         1.378220
 H         3.604475         2.040495        -0.209056
 H         2.453538         3.310191         0.388265
 H         1.890485         1.144591         3.494195
 H        -0.265390        -1.320067        -0.500824
 H        -1.026027         0.217658        -0.042000
 H         0.360283         0.361458        -1.128516
 H         1.432562        -2.184245         1.669968
 H         2.644820        -1.732822         0.243503
 H         4.591833        -0.162261         2.866808
