19
Iteration:  3135
 C         3.054086         1.706629         0.152864
 C         2.345255         0.765559         1.129708
 C         1.839575         0.759027         2.527691
 O         0.481441         0.326082         2.228749
 C         1.037418        -0.080428         0.920338
 C         0.199695        -0.016535        -0.317991
 C         1.786505        -1.440196         1.380556
 C         2.726524        -0.368263         2.087997
 O         4.076273        -0.452109         2.589495
 H         4.010357         1.906930         0.455638
 H         2.982236         1.403166        -0.903199
 H         2.401981         2.646453        -0.009866
 H         1.972481         1.248122         3.413931
 H        -0.771204        -0.504722        -0.069939
 H        -0.159423         0.887176        -0.773218
 H         0.702972        -0.753874        -1.013915
 H         1.301378        -2.174005         1.967857
 H         2.146258        -1.815137         0.473994
 H         3.993023        -0.804510         3.507860
