19
Iteration:   793
 C         2.890375         2.075928         0.583835
 C         2.396166         0.785336         1.225307
 C         1.809342         0.615831         2.555436
 O         0.407260         0.267450         2.056674
 C         1.091024        -0.111552         0.876857
 C         0.144915        -0.130163        -0.325604
 C         1.907863        -1.298546         1.226613
 C         2.850414        -0.416284         1.923570
 O         4.044650        -0.702569         2.567319
 H         3.624520         2.616070         1.225569
 H         3.223791         1.967408        -0.466414
 H         2.039327         2.782096         0.641798
 H         2.042320         1.255309         3.498715
 H        -0.584094        -0.929591         0.003566
 H        -0.367007         0.844437        -0.275216
 H         0.594088        -0.320030        -1.330676
 H         1.383742        -2.046672         1.842478
 H         2.432764        -1.616746         0.268485
 H         4.666049         0.072909         2.521545
