19
Iteration:  2848charge 0 multiplicity 1
 C         3.225215         1.691536         0.472718
 C         2.291169         0.782330         1.114998
 C         1.876823         0.745490         2.484710
 O         0.470973         0.474373         2.155767
 C         0.976526        -0.032739         0.885670
 C        -0.026002        -0.257021        -0.234408
 C         1.796778        -1.335020         1.307204
 C         2.749392        -0.408264         1.980977
 O         4.104939        -0.486363         2.466259
 H         3.931992         2.213817         0.989234
 H         3.705653         1.243837        -0.436212
 H         2.544818         2.475258         0.229927
 H         2.132765         1.428072         3.253646
 H        -0.568452        -1.162718         0.043551
 H        -0.544236         0.673362        -0.376386
 H         0.427364        -0.348269        -1.177057
 H         1.358695        -2.110898         2.153211
 H         2.274708        -1.902955         0.486203
 H         4.209447        -0.618010         3.440117
