19
Iteration:  1298charge 0 multiplicity 1
 C         3.000176         1.880829         0.307714
 C         2.321888         0.840756         1.084888
 C         1.830405         0.628326         2.571874
 O         0.465428         0.248010         2.233605
 C         1.053036        -0.071444         0.845573
 C         0.096750        -0.044432        -0.263097
 C         1.988645        -1.370361         1.230201
 C         2.806119        -0.333800         1.927316
 O         3.967461        -0.609522         2.689307
 H         3.658911         2.380593         0.958098
 H         3.428416         1.433611        -0.583498
 H         2.309604         2.654115        -0.035418
 H         1.960975         0.907706         3.573944
 H        -0.478796        -0.926751        -0.163698
 H        -0.637553         0.731471        -0.243944
 H         0.690915        -0.040082        -1.191695
 H         1.648526        -2.252439         1.778591
 H         2.444367        -1.771513         0.325753
 H         4.249623         0.228970         3.075059
