19
Iteration:  3789
 C         2.941871         1.796171         0.168816
 C         2.463007         0.736864         1.091388
 C         1.894351         0.869592         2.486747
 O         0.531903         0.505326         2.159461
 C         1.053687        -0.115842         0.941252
 C         0.138309        -0.162053        -0.214031
 C         1.786946        -1.342629         1.475022
 C         2.782906        -0.406505         2.037691
 O         3.979368        -0.676828         2.506929
 H         2.235420         2.633738        -0.019006
 H         3.837674         2.352926         0.542768
 H         3.351885         1.346043        -0.741142
 H         1.863923         1.449530         3.472793
 H        -0.561651        -0.890097        -0.071758
 H        -0.289600         0.737488        -0.223489
 H         0.831551        -0.398165        -1.016631
 H         1.115805        -2.012354         2.102002
 H         2.223809        -2.008590         0.740823
 H         3.850255        -1.042567         3.413383
