19
Iteration:  3241
 C         3.184856         1.814618         0.291910
 C         2.427711         0.746727         1.052051
 C         1.791007         0.863506         2.423142
 O         0.446847         0.366463         2.158626
 C         0.977776        -0.220460         0.945078
 C         0.051121        -0.153617        -0.198584
 C         1.859154        -1.399103         1.416055
 C         2.727313        -0.366611         2.025949
 O         4.034119        -0.515711         2.524333
 H         3.892897         2.419433         0.909691
 H         3.851804         1.253401        -0.307438
 H         2.700000         2.639131        -0.203546
 H         1.952921         1.515417         3.244535
 H        -0.705545        -0.858113         0.088697
 H        -0.308922         0.827420        -0.139469
 H         0.445374        -0.340003        -1.206376
 H         1.276586        -2.263145         1.886664
 H         2.480984        -1.807061         0.535405
 H         3.856159        -0.492922         3.501360
