19
Iteration:  4961
 C         3.179075         1.638381         0.211673
 C         2.261593         0.828531         1.105358
 C         1.750602         0.825577         2.429230
 O         0.359834         0.403882         2.140096
 C         1.031895        -0.183718         0.936441
 C         0.108585        -0.193708        -0.268728
 C         1.998215        -1.405434         1.478945
 C         2.766577        -0.279861         2.000067
 O         4.059984        -0.440833         2.582159
 H         2.845491         1.683385        -0.808336
 H         3.101748         2.661742         0.513954
 H         4.254148         1.255402         0.374570
 H         1.875240         1.286029         3.419823
 H        -0.729177        -0.681202         0.076870
 H        -0.218744         0.828964        -0.417614
 H         0.441941        -0.699527        -1.142320
 H         1.563695        -2.127957         2.229262
 H         2.549765        -2.022423         0.663724
 H         3.804045        -0.414527         3.521965
