19
Iteration:  4551charge 0 multiplicity 1
 C         3.187643         1.511402         0.223431
 C         2.238171         0.811182         1.094224
 C         1.860336         0.789225         2.535487
 O         0.443446         0.337958         2.230824
 C         0.954735        -0.126362         0.962929
 C         0.048142         0.045701        -0.259915
 C         1.867566        -1.442651         1.386870
 C         2.768475        -0.323254         2.027854
 O         4.127632        -0.418599         2.488456
 H         2.719402         1.584655        -0.822418
 H         3.250499         2.642137         0.494763
 H         4.125721         1.073833         0.124841
 H         2.035328         1.318273         3.476720
 H        -0.930016        -0.316336         0.157312
 H         0.046825         1.110042        -0.508887
 H         0.332073        -0.539360        -1.194763
 H         1.136049        -2.083107         1.992961
 H         2.271952        -1.904559         0.467072
 H         4.142592        -0.844912         3.363324
