19
Iteration:  1660
 C         3.018082         1.803127         0.317548
 C         2.405315         0.765275         1.170842
 C         1.766777         0.722545         2.571443
 O         0.450928         0.451289         2.053325
 C         1.005825        -0.092177         0.929278
 C         0.036300        -0.141268        -0.249825
 C         1.942602        -1.426345         1.354391
 C         2.754889        -0.418232         1.983192
 O         4.131482        -0.427698         2.587623
 H         3.785597         2.318413         0.824658
 H         3.534942         1.266208        -0.529526
 H         2.345389         2.515000        -0.068655
 H         1.993107         1.044032         3.548107
 H        -0.956654        -0.541197         0.138582
 H        -0.140057         0.762292        -0.880697
 H         0.480916        -0.905219        -0.895508
 H         1.354238        -2.178875         1.943112
 H         2.211979        -1.953085         0.472728
 H         4.284855        -1.317982         2.978547
