19
Iteration:   339charge 0 multiplicity 1
 C         2.887297         1.914741         0.335054
 C         2.253519         0.880419         1.198843
 C         1.666445         0.616157         2.511167
 O         0.515115        -0.045555         2.231635
 C         1.154477        -0.152177         0.844736
 C         0.146256         0.321764        -0.259661
 C         2.015013        -1.421259         1.189899
 C         2.848662        -0.384908         2.017417
 O         3.997991        -0.560816         2.657795
 H         3.824313         2.261948         0.711333
 H         3.196638         1.535928        -0.706403
 H         2.362958         2.747146         0.136928
 H         1.713646         1.320140         3.410243
 H        -0.852817        -0.226492        -0.055841
 H        -0.132361         1.340970        -0.081372
 H         0.319308         0.233744        -1.310437
 H         1.545842        -2.255154         1.746602
 H         2.690729        -1.715139         0.309183
 H         4.827080        -0.928493         2.279765
