19
Iteration:  1364charge 0 multiplicity 1
 C         3.018059         1.969700         0.311965
 C         2.256258         0.853141         1.106765
 C         1.801946         0.693984         2.547669
 O         0.471259         0.263211         2.226125
 C         1.074874        -0.211469         0.923103
 C         0.177820        -0.119476        -0.348675
 C         1.835649        -1.385697         1.376027
 C         2.779025        -0.256116         1.979371
 O         4.037257        -0.667651         2.630647
 H         3.830495         2.293423         0.905965
 H         3.289124         1.603664        -0.690497
 H         2.415689         2.836689         0.116241
 H         2.021365         1.360366         3.312840
 H        -0.436159        -0.915078        -0.652956
 H        -0.450190         0.767251        -0.298601
 H         0.896373         0.099405        -1.168148
 H         1.295443        -2.044358         2.053145
 H         2.340915        -1.912647         0.595505
 H         4.699232        -0.230766         2.084552
