19
Iteration:   342
 C         2.886708         1.907107         0.346228
 C         2.279638         0.868796         1.190531
 C         1.698593         0.606535         2.512573
 O         0.483813        -0.020528         2.208619
 C         1.148187        -0.133102         0.829963
 C         0.109287         0.320078        -0.260190
 C         2.045565        -1.425408         1.179821
 C         2.863777        -0.361735         2.039404
 O         4.001125        -0.570130         2.665813
 H         3.854316         2.198630         0.756715
 H         3.103936         1.460730        -0.619161
 H         2.221070         2.833863         0.096756
 H         1.633541         1.195564         3.366833
 H        -0.802414        -0.206351         0.042280
 H        -0.258462         1.341262        -0.094080
 H         0.330936         0.203824        -1.290269
 H         1.673186        -2.306460         1.748863
 H         2.638383        -1.770436         0.379515
 H         4.831994        -0.975199         2.280159
