19
Iteration:  3399charge 0 multiplicity 1
 C         2.873749         1.884510         0.130663
 C         2.400289         0.831624         1.037489
 C         1.930079         0.743916         2.441805
 O         0.532738         0.527981         2.221814
 C         1.004318        -0.071941         0.916284
 C         0.165950        -0.257536        -0.265448
 C         1.818051        -1.364069         1.363058
 C         2.794335        -0.391532         2.063805
 O         4.029041        -0.740089         2.729583
 H         3.468444         2.502341         0.696702
 H         3.598635         1.459918        -0.598273
 H         2.071116         2.487585        -0.400459
 H         2.224312         1.352999         3.305129
 H        -0.283112        -1.272082        -0.186969
 H        -0.545476         0.464360        -0.547586
 H         0.915866        -0.247050        -1.022965
 H         0.999969        -1.923796         1.943998
 H         2.270674        -1.727570         0.473137
 H         3.822336        -0.276761         3.578665
