19
Iteration:  3975charge 0 multiplicity 1
 C         3.042449         1.730126         0.121971
 C         2.420052         0.775968         1.064308
 C         1.878936         0.849892         2.495085
 O         0.529063         0.460037         2.229427
 C         1.043013        -0.052227         0.979184
 C         0.142210        -0.098618        -0.144714
 C         1.789294        -1.378950         1.414056
 C         2.674291        -0.369667         2.062513
 O         4.002743        -0.707447         2.457811
 H         2.981340         1.438556        -0.910510
 H         2.617908         2.717960         0.239691
 H         4.058478         1.841540         0.464470
 H         2.226369         1.516326         3.306270
 H        -0.763895        -0.756380         0.044097
 H        -0.363566         0.871008        -0.275680
 H         0.583142        -0.544701        -1.141730
 H         1.172288        -2.054938         1.985216
 H         2.342695        -1.844629         0.664027
 H         4.122406        -0.776226         3.427222
