19
Iteration:  3795charge 0 multiplicity 1
 C         2.942732         1.792424         0.198643
 C         2.454743         0.766566         1.045977
 C         1.873092         0.830387         2.448640
 O         0.517910         0.499435         2.155209
 C         1.049227        -0.160263         0.955497
 C         0.167862        -0.106734        -0.210502
 C         1.755509        -1.366084         1.478662
 C         2.773153        -0.339775         2.066674
 O         4.023035        -0.707155         2.531744
 H         2.091494         2.438153        -0.121168
 H         3.733136         2.453872         0.542889
 H         3.356596         1.280095        -0.711398
 H         2.028518         1.530991         3.246359
 H        -0.676620        -0.913101        -0.001860
 H        -0.370091         0.979859        -0.307865
 H         0.750074        -0.361079        -1.152593
 H         1.306170        -1.989711         2.258840
 H         2.348425        -2.003639         0.762844
 H         3.953704        -1.160244         3.396535
