19
Iteration:  3579
 C         2.991545         1.826105         0.211889
 C         2.404086         0.703394         1.070682
 C         1.934214         0.709333         2.449903
 O         0.542161         0.514056         2.147307
 C         0.946228        -0.134909         0.895323
 C         0.072892        -0.243357        -0.295180
 C         1.812055        -1.299165         1.412312
 C         2.825706        -0.424313         2.019166
 O         4.027064        -0.500171         2.713008
 H         4.157125         1.866329         0.330690
 H         2.719957         1.736277        -0.852715
 H         2.506667         2.692950         0.514571
 H         2.330360         1.442089         3.134675
 H        -0.508396        -1.120212        -0.270385
 H        -0.666139         0.583996        -0.238177
 H         0.656270        -0.340970        -1.232908
 H         1.135835        -1.836920         2.115205
 H         2.100296        -2.125995         0.659056
 H         3.993154        -0.830226         3.616289
