19
Iteration:  3352charge 0 multiplicity 1
 C         3.047924         1.820261         0.127235
 C         2.372328         0.766524         1.056292
 C         1.761610         0.805643         2.495141
 O         0.434342         0.362829         2.081276
 C         1.085980        -0.197026         0.851702
 C         0.157555        -0.079701        -0.203747
 C         1.883820        -1.390314         1.496713
 C         2.757978        -0.384004         2.152633
 O         4.054220        -0.574807         2.589505
 H         4.073123         2.026719         0.457281
 H         3.006546         1.415561        -0.894493
 H         2.323601         2.697840         0.282770
 H         2.043544         1.479665         3.348922
 H        -0.717880        -0.643670         0.126146
 H        -0.125316         0.889985        -0.259739
 H         0.491869        -0.245029        -1.248774
 H         1.228179        -1.943390         2.273827
 H         2.342391        -1.887272         0.609822
 H         4.080598        -0.572269         3.564361
