19
Iteration:   807charge 0 multiplicity 1
 C         2.875790         2.121943         0.623957
 C         2.377318         0.850097         1.178400
 C         1.728236         0.608199         2.545575
 O         0.467347         0.382875         2.026701
 C         1.121069        -0.087781         0.793392
 C         0.069822        -0.162611        -0.193489
 C         1.953963        -1.438173         1.102430
 C         2.828484        -0.438107         2.058355
 O         4.123448        -0.710246         2.625213
 H         3.791718         2.472522         1.124938
 H         3.224529         1.993176        -0.371528
 H         1.973858         2.927803         0.537828
 H         1.610698         1.177103         3.436088
 H        -0.798516        -0.905469        -0.110367
 H        -0.434983         0.801117        -0.362024
 H         0.580047        -0.440268        -1.108327
 H         1.358844        -2.287440         1.463043
 H         2.478022        -1.906579         0.227988
 H         4.680347        -0.118950         2.141303
