19
Iteration:  2089charge 0 multiplicity 1
 C         3.046717         1.782663         0.334743
 C         2.372477         0.795391         1.108096
 C         1.733653         0.764763         2.458173
 O         0.495402         0.358452         2.068590
 C         1.082736        -0.134777         0.771001
 C        -0.028098        -0.178100        -0.141998
 C         1.976332        -1.311561         1.283528
 C         2.834431        -0.293962         2.075157
 O         4.033882        -0.629147         2.650138
 H         3.855199         2.247894         1.019480
 H         3.549292         1.551421        -0.649475
 H         2.196720         2.455801         0.068405
 H         1.636521         1.246225         3.350258
 H        -0.964507        -0.541370         0.260772
 H        -0.085485         0.921054        -0.326548
 H         0.176805        -0.737038        -1.049876
 H         1.613200        -2.084576         2.011166
 H         2.508817        -1.934378         0.478311
 H         4.196941         0.035694         3.376472
