19
Iteration:  4698charge 0 multiplicity 1
 C         3.214107         1.587791         0.200353
 C         2.298321         0.849719         1.177843
 C         1.720814         0.785876         2.522837
 O         0.414641         0.384610         2.213194
 C         1.045192        -0.162925         1.024288
 C         0.103027        -0.110162        -0.204953
 C         1.920226        -1.337092         1.381225
 C         2.778818        -0.271542         1.987358
 O         3.992042        -0.513253         2.417868
 H         3.068556         2.582588        -0.050052
 H         4.211939         1.515425         0.458053
 H         3.139142         1.061720        -0.835109
 H         1.896146         1.257301         3.505935
 H        -0.697275        -0.804097         0.051016
 H        -0.245824         1.028260        -0.357470
 H         0.664944        -0.411536        -1.056402
 H         1.538998        -2.148209         1.928078
 H         2.396987        -1.798688         0.516112
 H         3.914115        -0.390824         3.384155
