19
Iteration:   390charge 0 multiplicity 1
 C         2.982928         1.990855         0.511471
 C         2.333934         0.863320         1.203088
 C         1.833402         0.659855         2.560976
 O         0.498360         0.210829         2.255988
 C         1.079393         0.005990         0.901972
 C         0.120144        -0.126213        -0.287687
 C         1.942386        -1.341112         1.018937
 C         2.753956        -0.409153         1.908965
 O         3.938658        -0.640897         2.668407
 H         3.855708         2.505778         1.041231
 H         3.299032         1.833299        -0.541261
 H         2.160405         2.832725         0.331964
 H         2.423309         1.134108         3.411240
 H        -0.626605        -0.859466         0.025436
 H        -0.588949         0.659274        -0.638842
 H         0.777318        -0.455792        -1.162534
 H         1.347164        -2.144280         1.447519
 H         2.466283        -1.703360         0.099694
 H         4.702004        -0.722883         2.105679
