19
Iteration:  1101
 C         2.945368         1.928046         0.380439
 C         2.277534         0.880110         1.234256
 C         1.726516         0.655162         2.621286
 O         0.445317         0.138337         2.208013
 C         1.067940        -0.151205         0.888278
 C         0.183563         0.026272        -0.286260
 C         1.992751        -1.381076         1.143275
 C         2.863168        -0.313361         1.980209
 O         3.987080        -0.552868         2.605048
 H         3.794512         2.308572         0.978386
 H         3.379199         1.391953        -0.515018
 H         2.366560         2.805708        -0.103184
 H         1.754812         1.264598         3.601399
 H        -0.465012        -0.885740        -0.444892
 H        -0.393915         0.947899        -0.331847
 H         0.802859        -0.017416        -1.180832
 H         1.388628        -2.034036         1.749721
 H         2.699142        -1.736392         0.326346
 H         4.434778        -1.217189         2.094187
