19
Iteration:  4598
 C         2.899044         1.754408         0.192689
 C         2.362906         0.761677         1.141766
 C         1.908256         0.870441         2.534728
 O         0.578131         0.445168         2.213481
 C         1.062735        -0.079502         0.863531
 C         0.089327        -0.164777        -0.278242
 C         1.743193        -1.315485         1.370955
 C         2.783148        -0.362867         2.118994
 O         4.049067        -0.700697         2.537702
 H         2.366244         1.854482        -0.742605
 H         3.062138         2.763608         0.542243
 H         3.956694         1.368911        -0.064929
 H         2.152851         1.686417         3.233502
 H        -0.691079        -0.824319         0.058269
 H        -0.074501         0.958351        -0.671914
 H         0.718516        -0.641217        -1.080287
 H         1.267359        -2.093384         1.956301
 H         2.391188        -1.746590         0.628468
 H         4.001309        -0.876684         3.500762
