19
Iteration:  4120
 C         3.302061         1.559213         0.315791
 C         2.337166         0.805798         1.126519
 C         1.837197         0.841779         2.540189
 O         0.509049         0.527983         2.296086
 C         0.890015         0.007339         0.977411
 C        -0.036307        -0.243453        -0.176598
 C         1.716415        -1.334970         1.357903
 C         2.797014        -0.321891         2.009220
 O         4.121886        -0.617021         2.278596
 H         4.184800         1.575091         0.950050
 H         3.534823         1.337765        -0.711589
 H         3.033599         2.714387         0.376799
 H         2.279123         1.282018         3.401942
 H        -0.859208        -1.122478        -0.188685
 H        -0.673878         0.737585        -0.355962
 H         0.500100        -0.319066        -1.218092
 H         1.011131        -1.982747         1.818186
 H         2.144798        -1.694323         0.439373
 H         3.996265        -0.933081         3.194559
