19
Iteration:   240
 C         3.033119         2.144982         0.737161
 C         2.283851         0.997159         1.111743
 C         1.786852         0.682719         2.483095
 O         0.531566         0.155719         2.173635
 C         0.981126        -0.198740         0.786118
 C        -0.010661        -0.181719        -0.264696
 C         1.923669        -1.338000         1.206463
 C         2.926994        -0.315959         1.829358
 O         3.997880        -0.712787         2.597557
 H         3.745657         2.333074         1.555243
 H         3.710895         2.049094        -0.206761
 H         2.481654         3.024549         0.657413
 H         1.764745         1.210856         3.519108
 H        -0.618079        -1.108269        -0.464252
 H        -0.572514         0.749605        -0.212926
 H         0.600171        -0.091759        -1.173663
 H         1.549190        -2.180726         1.800182
 H         2.390939        -1.683974         0.193986
 H         4.740012        -0.957616         2.031379
