19
Iteration:  2272charge 0 multiplicity 1
 C         3.189254         1.757202         0.348717
 C         2.376997         0.777213         1.193491
 C         1.685493         0.748430         2.519110
 O         0.451921         0.364000         2.099942
 C         0.978209        -0.093495         0.828985
 C        -0.038444        -0.203962        -0.184979
 C         1.987337        -1.370051         1.304835
 C         2.778186        -0.304283         2.063845
 O         4.051530        -0.553078         2.524973
 H         4.082768         2.182786         0.913161
 H         3.699080         1.216703        -0.531114
 H         2.716552         2.549127        -0.080652
 H         1.881287         1.587710         3.186087
 H        -0.919527        -0.745419         0.216500
 H        -0.220840         0.859516        -0.382148
 H         0.201481        -0.681285        -1.113318
 H         1.675056        -2.215322         1.846893
 H         2.696834        -1.612445         0.478240
 H         4.010326         0.074653         3.286350
