19
Iteration:   552
 C         2.900157         1.910460         0.300438
 C         2.283396         0.791185         1.241788
 C         1.760978         0.586953         2.601961
 O         0.453404         0.276704         2.159982
 C         1.102644        -0.101567         0.881057
 C         0.178059         0.091742        -0.241000
 C         2.001672        -1.382710         1.091994
 C         2.790133        -0.397124         1.980074
 O         4.043838        -0.570477         2.711569
 H         3.794602         2.414854         0.733940
 H         3.178704         1.546668        -0.661815
 H         2.033048         2.630937         0.195929
 H         1.893095         1.021337         3.580510
 H        -0.670063        -0.544097        -0.063419
 H        -0.375827         1.049663        -0.243536
 H         0.648655        -0.167543        -1.252672
 H         1.486893        -2.308342         1.542023
 H         2.687732        -1.646638         0.247811
 H         4.529703        -1.357796         2.420316
