19
Iteration:  3053
 C         3.273188         1.734547         0.311182
 C         2.335091         0.845416         1.107615
 C         1.842875         0.776577         2.590747
 O         0.418088         0.410720         2.152033
 C         1.059991        -0.048700         0.891837
 C        -0.001488        -0.287938        -0.148466
 C         1.863649        -1.344837         1.287268
 C         2.742592        -0.338602         1.983150
 O         3.988055        -0.507489         2.467043
 H         4.073214         2.012862         1.101219
 H         3.789875         1.088192        -0.328319
 H         2.949290         2.636940        -0.118211
 H         1.800281         1.558469         3.461162
 H        -0.607076        -1.216132         0.021150
 H        -0.601337         0.646729        -0.444855
 H         0.540702        -0.482332        -1.074512
 H         1.373313        -2.002413         2.072710
 H         2.330502        -1.954819         0.435317
 H         3.825813        -0.839486         3.390814
