19
Iteration:   754charge 0 multiplicity 1
 C         2.934914         2.002683         0.421113
 C         2.228660         0.898617         1.150328
 C         1.793944         0.684378         2.606196
 O         0.426683         0.105836         2.262636
 C         1.004213        -0.180774         0.941410
 C         0.326354         0.008064        -0.358323
 C         1.906904        -1.336908         1.221724
 C         2.776120        -0.340275         2.049013
 O         4.072909        -0.670960         2.444157
 H         3.691432         2.490261         1.023032
 H         3.347698         1.600831        -0.485794
 H         2.170943         2.796376         0.068806
 H         2.010247         1.264905         3.468656
 H        -0.423355        -0.763730        -0.649348
 H        -0.082278         1.024440        -0.506631
 H         1.047254        -0.009491        -1.144438
 H         1.591556        -2.265179         1.700900
 H         2.168244        -1.518316         0.175149
 H         4.194780        -0.496065         3.376913
