19
Iteration:   373
 C         2.910836         1.984133         0.402072
 C         2.360063         0.834375         1.219902
 C         1.805140         0.538811         2.593797
 O         0.485245         0.279123         2.161788
 C         1.104238        -0.113088         0.843687
 C         0.060106         0.009000        -0.236337
 C         1.983176        -1.331613         1.024120
 C         2.825775        -0.451775         2.016728
 O         3.991293        -0.580803         2.711981
 H         3.778823         2.331214         0.903899
 H         3.127246         1.591970        -0.624295
 H         2.211592         2.727519         0.322439
 H         1.766117         0.978404         3.558539
 H        -0.822310        -0.649807         0.061610
 H        -0.268271         1.033171        -0.193826
 H         0.407751        -0.227747        -1.207497
 H         1.654595        -2.361057         1.265791
 H         2.524855        -1.435969         0.052331
 H         4.769938        -0.876431         2.233632
