19
Iteration:  1806
 C         3.089735         1.895392         0.246261
 C         2.270310         0.876090         1.037732
 C         1.736686         0.772379         2.471242
 O         0.477750         0.235632         2.244242
 C         1.113319        -0.184276         0.903606
 C         0.151223        -0.121911        -0.256782
 C         1.835926        -1.368318         1.366909
 C         2.785340        -0.308306         2.048578
 O         4.072881        -0.534629         2.630496
 H         4.025004         2.280042         0.773493
 H         3.352974         1.540293        -0.685540
 H         2.380413         2.762259        -0.092374
 H         1.936426         1.440260         3.435654
 H        -0.676617        -0.912037        -0.242080
 H        -0.343856         0.874025        -0.134107
 H         0.565950        -0.335750        -1.310791
 H         1.215483        -2.078859         1.987631
 H         2.351319        -2.054633         0.561395
 H         3.963082        -1.533746         2.617141
