19
Iteration:  4419
 C         2.895958         1.797728         0.132348
 C         2.405618         0.718283         1.065271
 C         1.935212         0.809282         2.494370
 O         0.545303         0.503074         2.193140
 C         1.053201        -0.138009         0.856450
 C         0.065795         0.055357        -0.260804
 C         1.721900        -1.422570         1.480958
 C         2.755595        -0.411834         2.078559
 O         4.177997        -0.711040         2.605515
 H         3.774099         1.517182        -0.528486
 H         1.957465         2.042147        -0.509184
 H         2.968461         2.632854         0.753179
 H         2.251500         1.505422         3.269286
 H        -0.935982        -0.418975         0.146917
 H        -0.130697         1.116687        -0.450310
 H         0.559893        -0.576685        -1.086665
 H         1.052512        -1.978405         2.138506
 H         2.253682        -2.071266         0.759322
 H         4.056998        -1.411144         3.272751
