19
Iteration:  2983charge 0 multiplicity 1
 C         2.872437         1.830644         0.098998
 C         2.406521         0.723964         1.096482
 C         1.787735         0.862073         2.487402
 O         0.491003         0.359720         2.136326
 C         1.052450        -0.197528         0.960325
 C         0.178077         0.055166        -0.295040
 C         1.884979        -1.427793         1.467973
 C         2.836953        -0.345442         2.066674
 O         4.059534        -0.682186         2.640296
 H         3.591534         2.373796         0.667599
 H         3.381508         1.432732        -0.929549
 H         2.016376         2.615067        -0.046403
 H         2.113807         1.388767         3.349962
 H        -0.774915        -0.497909        -0.299997
 H        -0.090339         1.104613        -0.423253
 H         0.693822        -0.262041        -1.267298
 H         1.187815        -1.934814         2.352119
 H         2.234148        -2.212324         0.687680
 H         3.981611        -0.938969         3.599268
