19
Iteration:  3229charge 0 multiplicity 1
 C         3.148394         1.859272         0.281200
 C         2.346630         0.729393         1.017509
 C         1.843381         0.765445         2.419603
 O         0.502022         0.452350         2.168926
 C         1.010073        -0.204590         0.943403
 C         0.047916        -0.181054        -0.191600
 C         1.805241        -1.406156         1.367160
 C         2.797009        -0.340971         1.991663
 O         4.017846        -0.542746         2.623595
 H         3.685267         2.497428         1.064153
 H         3.815217         1.524577        -0.476753
 H         2.423456         2.312283        -0.292295
 H         2.094520         1.495035         3.213909
 H        -0.704508        -0.899261        -0.305089
 H        -0.466838         0.734150        -0.223255
 H         0.651290        -0.274491        -1.054615
 H         1.405820        -2.118399         2.112102
 H         2.257814        -1.894480         0.444761
 H         3.904549        -0.658168         3.596803
