19
Iteration:   527charge 0 multiplicity 1
 C         2.889407         1.826448         0.277672
 C         2.371321         0.816111         1.298400
 C         1.758090         0.637892         2.592263
 O         0.449950         0.189906         2.119860
 C         1.096184        -0.061858         0.838157
 C         0.014153         0.073063        -0.252023
 C         2.119392        -1.221442         1.042232
 C         2.804717        -0.400882         2.099698
 O         4.022018        -0.650229         2.768996
 H         3.876738         2.239601         0.446004
 H         3.030934         1.236250        -0.714572
 H         2.136401         2.529545         0.128895
 H         1.905890         1.179133         3.614947
 H        -0.926758        -0.446045        -0.038531
 H        -0.339986         1.131250        -0.146223
 H         0.334158        -0.112773        -1.297865
 H         1.589933        -2.177697         1.380591
 H         2.862483        -1.331367         0.257524
 H         4.706251        -0.995550         2.115947
