19
Iteration:  4235
 C         2.890077         1.735498         0.085135
 C         2.381185         0.767298         1.078714
 C         1.908446         0.819295         2.557697
 O         0.593166         0.463713         2.348061
 C         1.046576        -0.057384         0.932099
 C         0.104381         0.035194        -0.247954
 C         1.732329        -1.342395         1.340258
 C         2.786301        -0.353413         2.083568
 O         4.087474        -0.852567         2.507816
 H         3.431140         2.552642         0.569983
 H         3.708002         1.287565        -0.547104
 H         2.165363         2.056669        -0.539647
 H         2.209118         1.365447         3.487575
 H        -0.790226        -0.391140         0.108416
 H        -0.179152         0.997050        -0.534424
 H         0.376003        -0.559370        -1.104173
 H         0.958121        -2.045007         1.795525
 H         2.157515        -1.698623         0.379836
 H         4.258346        -0.669973         3.451180
