19
Iteration:  1693
 C         3.006319         1.784318         0.299739
 C         2.368066         0.699397         1.124451
 C         1.776167         0.846589         2.492839
 O         0.443569         0.370224         2.215601
 C         1.030944        -0.172075         0.904222
 C         0.172887        -0.135228        -0.280637
 C         1.853176        -1.354961         1.354042
 C         2.771846        -0.345397         2.085860
 O         4.099608        -0.472251         2.500798
 H         3.727588         2.233789         0.939039
 H         3.536762         1.476792        -0.639155
 H         2.302327         2.509722         0.019609
 H         2.044872         1.139264         3.431327
 H        -0.692913        -0.826145        -0.089645
 H        -0.141803         0.864555        -0.611699
 H         0.722403        -0.687603        -1.048474
 H         1.122280        -1.997495         1.935656
 H         2.258522        -1.793999         0.473935
 H         4.045814        -1.222720         3.071271
