19
Iteration:   391charge 0 multiplicity 1
 C         2.989019         1.995177         0.512116
 C         2.326116         0.869670         1.200850
 C         1.835695         0.658654         2.559492
 O         0.502376         0.208603         2.256614
 C         1.076898         0.008670         0.904670
 C         0.121796        -0.133940        -0.293762
 C         1.937469        -1.332512         1.027422
 C         2.756425        -0.406929         1.911447
 O         3.934196        -0.645639         2.658809
 H         3.832560         2.496055         1.073623
 H         3.310945         1.845706        -0.564612
 H         2.179898         2.799012         0.361088
 H         2.416261         1.135438         3.410293
 H        -0.641210        -0.886492         0.021445
 H        -0.573440         0.649967        -0.641820
 H         0.782939        -0.448714        -1.147837
 H         1.348146        -2.133465         1.463623
 H         2.467251        -1.728826         0.099364
 H         4.731876        -0.720365         2.133582
