19
Iteration:  3783charge 0 multiplicity 1
 C         2.987655         1.811456         0.137086
 C         2.415809         0.723650         1.147017
 C         1.888468         0.879500         2.535944
 O         0.540492         0.514343         2.163454
 C         1.079185        -0.056852         0.944113
 C         0.142811        -0.224621        -0.207622
 C         1.798598        -1.360280         1.464833
 C         2.757631        -0.428441         2.006199
 O         3.985210        -0.659132         2.512428
 H         2.297620         2.639223         0.050790
 H         3.902365         2.141484         0.640574
 H         3.228210         1.451353        -0.947537
 H         2.029263         1.354504         3.456715
 H        -0.668652        -1.117752        -0.163361
 H        -0.416555         0.858660        -0.367569
 H         0.761498        -0.405909        -1.112810
 H         1.000260        -1.926504         2.002018
 H         2.134666        -1.950498         0.578270
 H         3.853118        -0.929032         3.427199
