19
Iteration:  3962charge 0 multiplicity 1
 C         3.148992         1.720161         0.238103
 C         2.317367         0.741430         1.044524
 C         1.876385         0.831041         2.492198
 O         0.521549         0.538835         2.245188
 C         1.026387        -0.100787         0.948695
 C         0.045674        -0.126729        -0.162791
 C         1.709820        -1.435495         1.431095
 C         2.824243        -0.395507         2.004697
 O         4.045128        -0.611490         2.441385
 H         2.929276         1.550615        -0.852530
 H         2.798978         2.742994         0.478065
 H         4.151818         1.651447         0.308153
 H         2.022172         1.519829         3.342208
 H        -0.593630        -0.977051         0.020743
 H        -0.427117         0.857206        -0.469180
 H         0.798595        -0.338399        -1.009276
 H         1.197887        -2.098976         2.003742
 H         2.155467        -1.830980         0.557985
 H         3.883243        -0.791845         3.384650
