19
Iteration:  1186
 C         2.926696         1.986139         0.473091
 C         2.272677         0.866933         1.147280
 C         1.781786         0.756595         2.541276
 O         0.521821         0.213083         2.182837
 C         1.109275        -0.155457         0.869663
 C         0.114940        -0.099127        -0.383000
 C         1.927640        -1.383834         1.291480
 C         2.796910        -0.338595         1.999645
 O         4.025825        -0.603103         2.615767
 H         3.793255         2.273175         1.120976
 H         3.419573         1.809554        -0.531307
 H         2.325415         2.825506         0.432505
 H         1.827967         1.317149         3.533579
 H        -0.710915        -0.810281        -0.316834
 H        -0.289942         0.868825        -0.607541
 H         0.718430        -0.370089        -1.196685
 H         1.535446        -2.169137         1.860722
 H         2.439757        -1.844235         0.390285
 H         4.385525        -1.327032         1.980809
