19
Iteration:   255charge 0 multiplicity 1
 C         3.060940         2.166217         0.676859
 C         2.283172         0.893811         1.161697
 C         1.758592         0.685421         2.520656
 O         0.436856         0.169762         2.195894
 C         1.093223        -0.135443         0.858685
 C         0.093121        -0.166313        -0.305760
 C         2.007201        -1.342937         1.185150
 C         2.758029        -0.304555         1.949252
 O         3.986760        -0.758926         2.464132
 H         3.760989         2.455782         1.465855
 H         3.576634         1.977913        -0.250475
 H         2.368571         3.121405         0.520669
 H         1.998674         1.280555         3.442023
 H        -0.352202        -1.181191        -0.267899
 H        -0.664964         0.628738        -0.163295
 H         0.506199         0.028892        -1.284219
 H         1.515555        -2.065322         1.851705
 H         2.528015        -1.866858         0.443608
 H         4.693992        -0.594203         1.831962
