19
Iteration:  4806
 C         2.960316         1.806636         0.166834
 C         2.344827         0.792283         1.009230
 C         1.871881         0.846143         2.454758
 O         0.543496         0.494185         2.173491
 C         1.053369        -0.036249         0.867932
 C         0.123756        -0.338174        -0.227957
 C         1.832618        -1.334879         1.385549
 C         2.781834        -0.322227         2.147498
 O         4.023620        -0.703530         2.641897
 H         3.925765         1.960438         0.617115
 H         3.045874         1.631093        -0.907250
 H         2.495417         2.819300         0.296757
 H         2.021905         1.534410         3.290727
 H        -0.539753        -1.025424         0.120956
 H        -0.515916         0.545550        -0.494321
 H         0.594721        -0.686380        -1.063330
 H         1.263375        -2.109480         2.027665
 H         2.410862        -1.732148         0.515426
 H         3.972345        -0.620758         3.612039
