19
Iteration:  2893
 C         3.276883         1.735824         0.360412
 C         2.372353         0.795964         1.122673
 C         1.801137         0.829117         2.480431
 O         0.489561         0.287605         2.137032
 C         1.052774        -0.149245         0.913914
 C        -0.094738        -0.143616        -0.217050
 C         1.880039        -1.339205         1.382989
 C         2.721194        -0.300800         2.075950
 O         4.002225        -0.472707         2.419380
 H         4.163060         1.793007         0.923802
 H         3.691606         1.164520        -0.477329
 H         3.138247         2.801746         0.262766
 H         1.887167         1.615096         3.291551
 H        -0.707344        -0.974274         0.132806
 H        -0.583802         0.816760        -0.384961
 H         0.258866        -0.433075        -1.213276
 H         1.173500        -2.048814         2.070738
 H         2.402421        -1.871702         0.579218
 H         3.957587        -1.104356         3.182079
