19
Iteration:  2587charge 0 multiplicity 1
 C         2.860233         1.738350         0.141507
 C         2.338453         0.783166         1.151994
 C         1.898847         0.679956         2.528362
 O         0.461482         0.411549         2.238250
 C         1.117769        -0.068115         0.902925
 C         0.206381         0.003111        -0.263800
 C         1.917810        -1.353755         1.326086
 C         2.775488        -0.430037         2.054965
 O         4.007557        -0.617931         2.609363
 H         3.629223         2.306687         0.604070
 H         3.254816         1.066105        -0.635495
 H         2.051670         2.582359        -0.034907
 H         2.166521         1.393282         3.375877
 H        -0.875272        -0.463863        -0.210012
 H         0.003611         1.060425        -0.653392
 H         0.711240        -0.542249        -1.106754
 H         1.280820        -2.203393         1.759472
 H         2.291404        -1.968698         0.455950
 H         3.973073        -0.235914         3.494327
