19
Iteration:  4329charge 0 multiplicity 1
 C         3.367442         1.598749         0.283678
 C         2.340063         0.831741         1.133451
 C         1.794988         0.762475         2.513300
 O         0.479417         0.498369         2.221491
 C         0.995430        -0.131374         0.973135
 C        -0.036032        -0.083762        -0.075767
 C         1.822980        -1.393679         1.302675
 C         2.702606        -0.338751         2.006584
 O         4.015632        -0.543943         2.336507
 H         4.308536         1.007755         0.286293
 H         3.040581         1.576259        -0.778667
 H         3.464762         2.783261         0.346406
 H         2.187395         1.426476         3.288254
 H        -0.834118        -0.908088         0.274332
 H        -0.711512         0.857404         0.089307
 H         0.354927        -0.349401        -1.064116
 H         1.462552        -2.204447         1.986169
 H         2.434218        -1.697913         0.428232
 H         3.886251        -0.770835         3.274636
