19
Iteration:  3728
 C         3.300268         1.676693         0.243865
 C         2.309451         0.802520         1.066133
 C         1.794417         0.851970         2.468958
 O         0.469234         0.381412         2.182579
 C         1.043152        -0.169273         0.886271
 C         0.032278        -0.112024        -0.117267
 C         1.880582        -1.417910         1.396788
 C         2.715779        -0.337642         2.073988
 O         3.994717        -0.487511         2.464944
 H         3.363559         2.718690         0.419713
 H         4.239327         1.153443         0.318407
 H         2.890498         1.522590        -0.795715
 H         1.819855         1.540068         3.300009
 H        -0.821074        -0.885507         0.225830
 H        -0.480418         0.966072        -0.241317
 H         0.217240        -0.371055        -1.150424
 H         1.236884        -2.086003         1.944835
 H         2.604988        -1.772862         0.676117
 H         3.962406        -0.687295         3.422226
