19
Iteration:  1117
 C         2.992511         1.955531         0.309481
 C         2.250009         0.881720         1.119600
 C         1.787451         0.623865         2.555232
 O         0.470214         0.105246         2.267392
 C         1.008206        -0.105818         0.881109
 C         0.190936        -0.017606        -0.307679
 C         1.962820        -1.291807         1.191909
 C         2.747721        -0.338918         1.998297
 O         4.010938        -0.629487         2.709036
 H         3.767490         2.436131         0.918853
 H         3.518877         1.573893        -0.548736
 H         2.251500         2.693397         0.169935
 H         1.975798         1.035992         3.484644
 H        -0.464125        -0.856407        -0.508313
 H        -0.441334         0.900523        -0.187088
 H         0.954814         0.229713        -1.127052
 H         1.747595        -2.340218         1.568650
 H         2.289786        -1.472285         0.191138
 H         4.783670        -0.382258         2.163559
