19
Iteration:  1723
 C         3.045439         1.832486         0.223974
 C         2.225201         0.821494         1.096415
 C         1.792707         0.758340         2.534864
 O         0.412048         0.343546         2.267351
 C         1.090347        -0.254210         0.839867
 C         0.146720        -0.094363        -0.303620
 C         1.959434        -1.355589         1.421288
 C         2.825548        -0.265369         2.045400
 O         4.025755        -0.646546         2.521484
 H         3.919709         2.132693         0.767595
 H         3.454040         1.242515        -0.723675
 H         2.534818         2.722076        -0.094595
 H         2.046273         1.444816         3.366157
 H        -0.577096        -0.866596        -0.273487
 H        -0.496617         0.817800        -0.215710
 H         0.673385        -0.060573        -1.257907
 H         1.321597        -1.884752         2.150818
 H         2.503623        -1.906709         0.650952
 H         3.955749        -0.186688         3.419567
