19
Iteration:  2484
 C         3.236577         1.761785         0.441805
 C         2.320067         0.827266         1.086137
 C         1.831478         0.834024         2.486659
 O         0.457341         0.355583         2.206735
 C         0.991026        -0.122055         0.868139
 C         0.004802        -0.262230        -0.220062
 C         1.794953        -1.312934         1.306661
 C         2.776031        -0.343222         1.941365
 O         4.050834        -0.489053         2.488632
 H         4.102158         1.703293         1.238148
 H         3.725143         1.151353        -0.476276
 H         2.885450         2.718070         0.094481
 H         1.954843         1.346970         3.422720
 H        -0.696687        -1.099710        -0.011392
 H        -0.502230         0.713152        -0.327407
 H         0.520892        -0.503265        -1.215900
 H         1.379830        -1.998310         1.979948
 H         2.373547        -1.838970         0.504138
 H         4.030077        -0.712193         3.439125
