19
Iteration:  3528
 C         3.208508         1.574188         0.233717
 C         2.261676         0.790032         1.124690
 C         1.743528         0.875291         2.528934
 O         0.431364         0.304275         2.159578
 C         1.013231        -0.140356         0.890248
 C         0.055193        -0.085245        -0.224060
 C         1.951988        -1.324777         1.428988
 C         2.746523        -0.244072         2.092083
 O         4.038236        -0.506654         2.479077
 H         4.169166         1.330731         0.539538
 H         3.043336         1.291733        -0.823272
 H         3.018308         2.729952         0.321107
 H         1.724095         1.570887         3.310962
 H        -0.877136        -0.765574         0.122071
 H        -0.251131         0.841917        -0.635828
 H         0.635741        -0.738017        -0.984969
 H         1.758747        -2.369327         1.696304
 H         2.598254        -1.531481         0.634519
 H         4.259590        -0.530497         3.414348
