19
Iteration:  3242
 C         3.193145         1.801188         0.292697
 C         2.424940         0.752517         1.063267
 C         1.792273         0.868037         2.424011
 O         0.441575         0.359780         2.158668
 C         0.979763        -0.211337         0.934570
 C         0.047059        -0.148964        -0.196542
 C         1.869248        -1.401922         1.420221
 C         2.723009        -0.360590         2.027242
 O         4.032540        -0.514157         2.519974
 H         3.869140         2.388174         0.918852
 H         3.865692         1.246646        -0.333414
 H         2.689447         2.684993        -0.203188
 H         1.924150         1.504218         3.228437
 H        -0.738355        -0.885522         0.116445
 H        -0.303312         0.852185        -0.126878
 H         0.461227        -0.378803        -1.248491
 H         1.261960        -2.283748         1.884976
 H         2.479116        -1.825182         0.527144
 H         3.916845        -0.493263         3.496623
