19
Iteration:   632charge 0 multiplicity 1
 C         2.973506         1.964529         0.556446
 C         2.382451         0.835124         1.281251
 C         1.771242         0.679204         2.631176
 O         0.415890         0.407216         2.010157
 C         1.134668        -0.035505         0.816084
 C         0.051192        -0.219940        -0.224265
 C         1.906286        -1.379737         1.134772
 C         2.785351        -0.410477         2.087444
 O         4.100682        -0.695310         2.497954
 H         3.742996         2.403438         1.195261
 H         3.337428         1.696446        -0.374234
 H         2.286941         2.897111         0.408097
 H         1.878388         1.113962         3.709618
 H        -0.600637        -1.131102         0.040420
 H        -0.463224         0.643911        -0.613360
 H         0.596649        -0.402467        -1.116703
 H         1.325850        -2.144187         1.609652
 H         2.461814        -1.844532         0.263940
 H         4.480554         0.099701         2.062067
