19
Iteration:    69
 C         3.038493         2.296620         0.618539
 C         2.255732         0.990487         1.112458
 C         1.819989         0.612455         2.510657
 O         0.536233         0.108729         2.238050
 C         1.120295        -0.179385         0.791726
 C         0.072881        -0.164260        -0.273058
 C         1.976952        -1.301364         1.147341
 C         2.766654        -0.362293         1.969939
 O         3.912760        -0.836738         2.523872
 H         3.726203         2.574738         1.379717
 H         3.549185         2.140786        -0.248127
 H         2.389498         3.272780         0.448953
 H         1.930840         1.313823         3.335713
 H        -0.258490        -1.184574        -0.672492
 H        -0.747945         0.356614         0.204028
 H         0.332139         0.362346        -1.158822
 H         1.624047        -2.194580         1.761519
 H         2.491018        -1.693732         0.294300
 H         4.531292        -0.103206         2.640767
