19
Iteration:   102charge 0 multiplicity 1
 C         2.803866         2.020980         0.604291
 C         2.298689         0.822628         1.292259
 C         1.755311         0.534509         2.613086
 O         0.432487         0.289447         2.109913
 C         1.021401        -0.080115         0.836832
 C         0.134783         0.052349        -0.361343
 C         1.989785        -1.387695         1.153864
 C         2.863603        -0.491812         2.001315
 O         4.206012        -0.697124         2.495047
 H         3.583083         2.488089         1.157565
 H         3.208208         1.748678        -0.297733
 H         1.935257         2.781736         0.430156
 H         1.834985         1.241794         3.493510
 H        -0.321216        -0.988323        -0.491090
 H        -0.660586         0.771670        -0.206654
 H         0.692700         0.351452        -1.225786
 H         1.605926        -2.240766         1.779804
 H         2.329229        -1.622227         0.166884
 H         4.539377         0.249775         2.540041
