19
Iteration:  4503charge 0 multiplicity 1
 C         3.237291         1.599927         0.256113
 C         2.332353         0.839049         1.114987
 C         1.758911         0.749600         2.513164
 O         0.462660         0.476109         2.178360
 C         1.007801        -0.126420         0.914919
 C        -0.081198        -0.083264        -0.120493
 C         1.886973        -1.391386         1.370357
 C         2.717821        -0.394522         1.928355
 O         4.132750        -0.473128         2.489794
 H         3.232087         1.491460        -0.807049
 H         3.357129         2.639069         0.396205
 H         4.236920         1.056362         0.596060
 H         1.943339         1.325819         3.409638
 H        -0.803663        -0.881594         0.015821
 H        -0.505227         0.887548        -0.267750
 H         0.341215        -0.268919        -1.047923
 H         1.343881        -2.042258         2.167583
 H         2.235796        -1.875412         0.395493
 H         4.138653        -0.757742         3.426667
