19
Iteration:  4471charge 0 multiplicity 1
 C         3.133696         1.781766         0.197832
 C         2.439861         0.753146         1.063884
 C         1.891524         0.848024         2.511686
 O         0.581165         0.463737         2.265561
 C         0.995463        -0.036636         0.947291
 C         0.025398        -0.237429        -0.199437
 C         1.772833        -1.311245         1.357143
 C         2.678240        -0.378586         2.068354
 O         3.990040        -0.649210         2.463423
 H         3.336150         1.321108        -0.787136
 H         2.579755         2.727878         0.159893
 H         4.176879         1.875302         0.666424
 H         2.101453         1.509070         3.348575
 H        -0.544289        -1.166511         0.044996
 H        -0.572157         0.636043        -0.323868
 H         0.713457        -0.422315        -0.980598
 H         0.952626        -2.066912         1.762942
 H         2.177660        -1.749528         0.371560
 H         4.064521        -0.792097         3.421605
