19
Iteration:  1988charge 0 multiplicity 1
 C         2.975958         1.808760         0.300323
 C         2.289083         0.756429         1.178410
 C         1.752876         0.838077         2.494259
 O         0.487573         0.316074         2.166008
 C         1.073495        -0.130326         0.922454
 C         0.184936        -0.101033        -0.352199
 C         1.948919        -1.398246         1.466971
 C         2.791146        -0.328223         2.059670
 O         4.025119        -0.558437         2.499478
 H         3.898913         2.210728         0.680468
 H         3.116384         1.169532        -0.691633
 H         2.405387         2.679275         0.119108
 H         1.913120         1.751177         3.232460
 H        -0.510983        -0.972457        -0.438723
 H        -0.451015         0.779378        -0.219147
 H         0.724392         0.183002        -1.283273
 H         1.292047        -2.125031         2.045024
 H         2.489998        -1.907397         0.674728
 H         4.090506        -1.307681         3.106024
