19
Iteration:  2048charge 0 multiplicity 1
 C         3.137436         1.735405         0.321348
 C         2.288005         0.820514         1.023368
 C         1.774199         0.673166         2.587832
 O         0.500279         0.298706         2.245057
 C         1.002325        -0.085397         0.915193
 C         0.104430        -0.175762        -0.275261
 C         1.910709        -1.340786         1.285840
 C         2.752803        -0.320881         2.017161
 O         4.006463        -0.425637         2.532428
 H         3.955412         2.025157         1.053694
 H         3.722750         1.281044        -0.434606
 H         2.563946         2.603262        -0.236452
 H         2.064463         1.192795         3.503930
 H        -0.876335        -0.592071        -0.069321
 H        -0.136662         0.809524        -0.758131
 H         0.617539        -0.813475        -0.999794
 H         1.188727        -1.982918         1.756179
 H         2.605978        -1.679170         0.473681
 H         3.911537        -0.557460         3.474644
