19
Iteration:  3825charge 0 multiplicity 1
 C         2.899141         1.742247         0.144183
 C         2.427322         0.714316         1.037513
 C         1.866463         0.825306         2.429778
 O         0.519863         0.477895         2.190716
 C         0.991174        -0.187502         0.974472
 C         0.093627         0.050058        -0.268357
 C         1.786403        -1.422919         1.432649
 C         2.834142        -0.352941         2.068220
 O         4.100927        -0.654186         2.633727
 H         2.215961         2.019032        -0.628889
 H         3.294195         2.564328         0.759939
 H         3.786643         1.216495        -0.448702
 H         1.888512         1.420251         3.285460
 H        -0.928343        -0.379921        -0.121335
 H        -0.021989         1.070061        -0.529175
 H         0.416068        -0.382239        -1.149931
 H         1.438402        -2.026152         2.357193
 H         2.420371        -1.951002         0.746085
 H         4.150837        -1.223103         3.427273
