19
Iteration:  1406charge 0 multiplicity 1
 C         2.967837         1.865780         0.379885
 C         2.288749         0.736409         1.209725
 C         1.803706         0.643627         2.591513
 O         0.435424         0.450687         2.096952
 C         1.030230        -0.148725         0.854120
 C         0.114702        -0.174295        -0.251418
 C         1.935032        -1.383771         1.254907
 C         2.828019        -0.367130         2.049602
 O         4.099107        -0.520996         2.514315
 H         3.914551         2.152603         0.896616
 H         3.316091         1.573470        -0.731221
 H         2.406231         2.739029         0.259943
 H         1.887013         1.216600         3.476458
 H        -0.848214        -0.592857         0.067198
 H         0.041494         0.897598        -0.425183
 H         0.502704        -0.703453        -1.144186
 H         1.395755        -2.214487         1.633768
 H         2.508646        -1.660360         0.351191
 H         4.071416        -0.419144         3.481295
