19
Iteration:  2310charge 0 multiplicity 1
 C         3.099464         1.922841         0.295695
 C         2.288559         0.902529         1.024439
 C         1.873798         0.702461         2.491241
 O         0.520364         0.384942         2.206130
 C         1.081861        -0.127549         0.894592
 C         0.086892        -0.243864        -0.310337
 C         1.807917        -1.361097         1.437939
 C         2.736876        -0.367481         1.985487
 O         4.004457        -0.661571         2.619270
 H         3.957548         2.255673         0.904590
 H         3.312987         1.639654        -0.728972
 H         2.354056         2.833368         0.223002
 H         2.098864         1.563488         3.165886
 H        -0.704697        -1.030134        -0.134553
 H        -0.507637         0.676044        -0.648714
 H         0.791004        -0.585827        -1.144644
 H         1.376325        -2.219199         2.123012
 H         2.379642        -1.941246         0.600310
 H         4.207226         0.022329         3.315672
