19
Iteration:  4863charge 0 multiplicity 1
 C         3.029107         1.746358         0.204232
 C         2.313192         0.794641         1.026586
 C         1.877487         0.832786         2.464171
 O         0.533549         0.363927         2.191755
 C         1.089072        -0.184785         0.784564
 C         0.112686        -0.187675        -0.283868
 C         1.734558        -1.367156         1.433356
 C         2.758527        -0.264124         2.147628
 O         4.077815        -0.544404         2.649016
 H         3.951922         1.418678        -0.193902
 H         2.390210         1.813320        -0.612074
 H         3.103561         2.731320         0.762211
 H         2.026326         1.774406         3.006880
 H        -0.566519        -0.964441        -0.077184
 H        -0.388788         0.731229        -0.168883
 H         0.538228        -0.277442        -1.262548
 H         1.078804        -2.078412         1.990786
 H         2.341725        -2.168916         0.858534
 H         4.139878        -0.603172         3.632866
