19
Iteration:   299charge 0 multiplicity 1
 C         2.897700         1.892870         0.452280
 C         2.261810         0.797067         1.332239
 C         1.758512         0.518399         2.669632
 O         0.417704         0.247623         2.265931
 C         1.050508        -0.059857         0.845978
 C         0.212010         0.076826        -0.379125
 C         1.977545        -1.390164         1.112934
 C         2.829027        -0.478036         1.885858
 O         4.089200        -0.491326         2.594628
 H         3.717957         2.327390         1.033302
 H         3.219414         1.444120        -0.464977
 H         2.009598         2.675275         0.232170
 H         1.952072         1.009546         3.589685
 H        -0.570133        -0.685517        -0.409228
 H        -0.346866         1.037500        -0.346435
 H         0.935277         0.055175        -1.177403
 H         1.525423        -2.321273         1.476535
 H         2.271377        -1.615844         0.141960
 H         4.695651        -0.392013         1.841466
