19
Iteration:  2489
 C         3.230053         1.771244         0.374965
 C         2.308410         0.816293         1.093350
 C         1.825241         0.831234         2.473859
 O         0.430152         0.366736         2.187167
 C         1.024167        -0.081708         0.889199
 C         0.021829        -0.266391        -0.221589
 C         1.786572        -1.359436         1.325637
 C         2.781758        -0.370512         1.948157
 O         4.070739        -0.493080         2.518093
 H         3.932607         1.797808         1.141111
 H         3.757422         1.371091        -0.382676
 H         2.910752         2.848308         0.282579
 H         2.122084         1.308316         3.435099
 H        -0.744157        -1.032571        -0.010473
 H        -0.602256         0.631763        -0.352961
 H         0.484461        -0.429221        -1.174131
 H         1.266410        -2.121947         2.021430
 H         2.349562        -1.652952         0.438580
 H         4.136533        -0.853919         3.415218
