19
Iteration:  3206
 C         2.906232         1.885907         0.211654
 C         2.370737         0.700249         1.095970
 C         1.933223         0.763638         2.460858
 O         0.543874         0.475192         2.178552
 C         1.091264        -0.031007         0.882159
 C         0.082218        -0.174165        -0.328374
 C         1.800897        -1.380023         1.401534
 C         2.816141        -0.401158         2.017101
 O         4.028728        -0.615392         2.685688
 H         3.541391         2.540989         0.901770
 H         3.563688         1.399270        -0.502160
 H         2.207439         2.243310        -0.427031
 H         2.245239         1.385008         3.390985
 H        -0.460597        -1.027595        -0.148930
 H        -0.741628         0.514220        -0.317551
 H         0.467687        -0.366488        -1.244494
 H         1.236216        -1.990812         2.110966
 H         2.378311        -1.949279         0.640738
 H         3.767109        -0.932691         3.586079
