19
Iteration:  4897
 C         3.125969         1.557859         0.132188
 C         2.296939         0.814085         1.110432
 C         1.745821         0.716413         2.524815
 O         0.346389         0.433961         2.126620
 C         0.978105        -0.194135         1.000779
 C         0.169189        -0.093087        -0.225279
 C         1.968936        -1.424497         1.418534
 C         2.763717        -0.269342         2.031039
 O         4.061038        -0.387498         2.579252
 H         3.806580         0.878158        -0.415925
 H         2.532148         2.175669        -0.480229
 H         3.786857         2.318807         0.565221
 H         1.804083         1.397863         3.381371
 H        -0.796733        -0.617911        -0.161942
 H        -0.019128         0.901052        -0.257550
 H         0.721842        -0.384460        -1.157834
 H         1.655931        -2.189086         2.136078
 H         2.609223        -1.668298         0.501064
 H         4.154402        -0.906598         3.395802
