19
Iteration:   669charge 0 multiplicity 1
 C         3.079587         1.992055         0.451450
 C         2.232937         0.913791         1.107630
 C         1.777018         0.704422         2.529262
 O         0.537216         0.095256         2.195713
 C         1.038941        -0.153185         0.873871
 C         0.016017        -0.054520        -0.242624
 C         2.016922        -1.302830         1.167349
 C         2.754520        -0.320515         1.929034
 O         3.917259        -0.643691         2.680659
 H         3.895509         2.019238         1.187448
 H         3.685112         1.616607        -0.523190
 H         2.696778         2.919576         0.314431
 H         2.302211         1.121308         3.381899
 H        -0.829535        -0.690713        -0.270290
 H        -0.316179         0.966698        -0.487154
 H         0.759548        -0.481143        -0.968802
 H         1.631673        -2.157058         1.778212
 H         2.474443        -1.598973         0.255140
 H         4.790499        -0.373979         2.235570
