19
Iteration:  1343charge 0 multiplicity 1
 C         2.941424         1.867254         0.321674
 C         2.307212         0.828082         1.148578
 C         1.749626         0.771026         2.510683
 O         0.436080         0.297954         2.147598
 C         1.108539        -0.095457         0.934172
 C         0.143269        -0.067438        -0.306099
 C         2.010171        -1.367856         1.356703
 C         2.763303        -0.362445         2.035056
 O         4.059633        -0.620238         2.612950
 H         3.663705         2.302445         0.948204
 H         3.247819         1.521467        -0.625719
 H         2.213911         2.692868         0.119404
 H         1.948875         1.298928         3.383957
 H        -0.299757        -1.011134        -0.459631
 H        -0.735882         0.579754        -0.209482
 H         0.681454         0.211258        -1.238836
 H         1.461302        -2.192092         1.863100
 H         2.600510        -1.749759         0.539706
 H         4.371352        -1.446628         2.219030
