19
Iteration:  1535charge 0 multiplicity 1
 C         3.002065         1.885056         0.224936
 C         2.319536         0.819550         1.023433
 C         1.762200         0.826200         2.464425
 O         0.450841         0.238379         2.212594
 C         0.961609        -0.147490         0.944311
 C         0.220275        -0.125254        -0.276743
 C         1.858940        -1.358124         1.442340
 C         2.824185        -0.295088         2.018104
 O         4.073068        -0.579931         2.613183
 H         3.878471         2.188251         0.888328
 H         3.519421         1.468398        -0.612885
 H         2.518875         2.838706         0.025247
 H         1.878875         1.158764         3.498234
 H        -0.554819        -0.917380        -0.346405
 H        -0.402072         0.774561        -0.115417
 H         0.934497         0.141817        -1.095008
 H         1.368057        -2.074714         2.099996
 H         2.256823        -1.886726         0.468350
 H         4.198136        -1.556241         2.599991
