19
Iteration:  4485charge 0 multiplicity 1
 C         3.241862         1.639161         0.252971
 C         2.328953         0.799607         1.119344
 C         1.927551         0.778405         2.523153
 O         0.468178         0.460424         2.245142
 C         0.963635        -0.029654         0.920267
 C        -0.035312        -0.205184        -0.218697
 C         1.732539        -1.297691         1.332154
 C         2.818600        -0.356552         2.017232
 O         4.073381        -0.579487         2.490337
 H         3.057988         1.447346        -0.878965
 H         2.888988         2.774660         0.360335
 H         4.242827         1.733268         0.521769
 H         2.234908         1.451529         3.325710
 H        -0.773230        -1.107920        -0.060186
 H        -0.764813         0.603557        -0.433575
 H         0.434689        -0.437495        -1.260873
 H         1.396143        -2.107468         2.050534
 H         2.306441        -1.769037         0.503950
 H         3.946344        -0.686815         3.456527
