19
Iteration:   544
 C         2.855107         1.869362         0.300135
 C         2.365459         0.861849         1.213643
 C         1.743188         0.565096         2.629416
 O         0.440883         0.283275         2.105618
 C         1.118589        -0.094271         0.879015
 C         0.113449         0.113589        -0.224988
 C         2.008118        -1.394839         1.094554
 C         2.815980        -0.431448         2.049374
 O         4.067139        -0.574748         2.740239
 H         3.790190         2.316780         0.686372
 H         3.118193         1.391313        -0.604086
 H         2.070732         2.717445         0.087096
 H         1.736577         1.095835         3.510948
 H        -0.648032        -0.705940        -0.069146
 H        -0.247625         1.132775        -0.238699
 H         0.520199        -0.172611        -1.192750
 H         1.762094        -2.411081         1.345744
 H         2.393207        -1.296015         0.051108
 H         4.505888        -1.351559         2.319396
