19
Iteration:  3260
 C         3.240574         1.634885         0.342317
 C         2.260591         0.801768         1.059184
 C         1.693966         0.786401         2.543176
 O         0.464957         0.338661         2.127059
 C         1.098840        -0.138202         0.846370
 C        -0.026419        -0.137827        -0.207651
 C         1.899410        -1.342850         1.365853
 C         2.745195        -0.287263         2.125792
 O         4.088799        -0.479497         2.459448
 H         4.151009         2.043593         0.958659
 H         3.719968         1.075865        -0.490849
 H         2.736468         2.469223        -0.047373
 H         1.905135         1.555320         3.365048
 H        -0.846821        -0.691109         0.149378
 H        -0.395825         0.832037        -0.606702
 H         0.295695        -0.552376        -1.086749
 H         1.436111        -1.952003         2.057107
 H         2.510324        -1.880772         0.682107
 H         4.047171        -0.519311         3.436681
