19
Iteration:  4464charge 0 multiplicity 1
 C         3.105134         1.825580         0.210692
 C         2.379275         0.738917         1.034370
 C         1.872051         0.863739         2.483699
 O         0.582356         0.515668         2.258900
 C         1.036912        -0.037959         0.960894
 C         0.110888        -0.227357        -0.139385
 C         1.758362        -1.395924         1.330539
 C         2.746593        -0.350951         2.101025
 O         3.960596        -0.700927         2.450486
 H         3.329278         1.248178        -0.751969
 H         2.509480         2.783921        -0.106864
 H         3.982809         2.141861         0.670175
 H         2.051691         1.410226         3.411786
 H        -0.651115        -1.090898         0.027798
 H        -0.568696         0.648667        -0.274898
 H         0.729341        -0.418624        -1.130212
 H         0.997276        -2.013854         1.794341
 H         2.270156        -1.917778         0.531586
 H         3.923984        -0.887360         3.405714
