19
Iteration:  3316
 C         3.149025         1.566213         0.243000
 C         2.234788         0.791100         1.140685
 C         1.832759         0.785564         2.544133
 O         0.458516         0.352259         2.197672
 C         1.042180        -0.142654         0.927273
 C         0.086923        -0.125484        -0.307211
 C         1.904096        -1.343983         1.324030
 C         2.673806        -0.349598         2.074404
 O         4.059187        -0.340407         2.571260
 H         4.310117         1.556312         0.603957
 H         3.156211         1.316252        -0.817579
 H         2.987920         2.607768         0.243998
 H         2.128530         1.342443         3.375569
 H        -0.899881        -0.402919        -0.068789
 H         0.104684         0.940426        -0.680013
 H         0.408530        -0.844028        -1.022309
 H         1.508864        -2.166796         1.813572
 H         2.225765        -1.751428         0.350153
 H         4.064707        -1.023561         3.256971
