19
Iteration:  1308
 C         2.945461         1.870017         0.287888
 C         2.318798         0.845054         1.190567
 C         1.814755         0.642389         2.545250
 O         0.470107         0.299392         2.167751
 C         1.090172        -0.021481         0.863192
 C         0.069266        -0.071635        -0.267367
 C         1.965832        -1.383219         1.211470
 C         2.802363        -0.435304         2.038024
 O         4.043356        -0.592723         2.648347
 H         3.720259         2.441161         0.749452
 H         3.498629         1.514326        -0.596948
 H         2.202986         2.517717         0.007019
 H         2.151226         1.030001         3.512885
 H        -0.285826        -1.079744        -0.272202
 H        -0.681097         0.678704        -0.226204
 H         0.596585         0.016665        -1.220081
 H         1.462895        -2.218389         1.605300
 H         2.512418        -1.610913         0.272227
 H         3.894801        -0.024553         3.396395
