19
Iteration:  3122charge 0 multiplicity 1
 C         3.123404         1.681219         0.197188
 C         2.353114         0.766926         1.133144
 C         1.779552         0.670270         2.560913
 O         0.452127         0.383824         2.203960
 C         1.077317        -0.128976         0.921127
 C         0.152111        -0.093515        -0.228371
 C         1.797042        -1.407546         1.335565
 C         2.760375        -0.431201         1.993199
 O         4.016055        -0.334130         2.544421
 H         4.148877         1.837000         0.489411
 H         3.201205         1.196980        -0.732130
 H         2.682294         2.736777         0.300242
 H         2.076688         1.416424         3.346036
 H        -0.884576        -0.422241         0.099072
 H         0.228883         0.976488        -0.418813
 H         0.461259        -0.565449        -1.232260
 H         1.090243        -2.020363         1.891609
 H         2.352513        -1.981650         0.593898
 H         4.002083        -0.722814         3.444436
