19
Iteration:  3383
 C         2.914271         1.834171         0.175148
 C         2.372364         0.686029         1.033174
 C         1.911026         0.839109         2.462444
 O         0.504816         0.488664         2.242491
 C         1.042130        -0.085820         0.924640
 C         0.160396        -0.224703        -0.333693
 C         1.830525        -1.306838         1.385898
 C         2.848406        -0.392419         2.005543
 O         3.989864        -0.695908         2.735092
 H         3.669812         2.580676         0.750229
 H         3.249454         1.447558        -0.785504
 H         1.964759         2.424639         0.055691
 H         2.222692         1.630049         3.168147
 H        -0.486831        -1.090754        -0.301851
 H        -0.543563         0.689830        -0.460292
 H         0.702811        -0.264556        -1.321529
 H         1.503127        -2.125368         2.003244
 H         2.161397        -1.931185         0.496777
 H         4.063796        -0.314969         3.631953
