19
Iteration:   623charge 0 multiplicity 1
 C         2.949774         1.959666         0.595527
 C         2.357148         0.779289         1.240497
 C         1.799215         0.676987         2.673700
 O         0.449149         0.447684         1.996118
 C         1.069438        -0.031840         0.874198
 C         0.139436        -0.192058        -0.271190
 C         1.930945        -1.412820         1.183048
 C         2.751914        -0.411304         2.034161
 O         4.085276        -0.671986         2.450065
 H         3.702634         2.386678         1.248536
 H         3.384750         1.775762        -0.446683
 H         2.079689         2.622375         0.514798
 H         1.478795         1.298176         3.643896
 H        -0.582528        -1.040087        -0.007526
 H        -0.597007         0.624353        -0.367285
 H         0.658071        -0.493758        -1.137551
 H         1.286022        -2.108239         1.665515
 H         2.607711        -1.826416         0.406476
 H         4.826612        -0.141295         2.087124
