19
Iteration:  2805
 C         2.967441         1.799325         0.189900
 C         2.351612         0.824478         1.075504
 C         1.791879         0.801828         2.507613
 O         0.459701         0.364280         2.217559
 C         1.069313        -0.139566         0.897347
 C         0.112010        -0.028489        -0.207566
 C         1.950892        -1.331429         1.410222
 C         2.824429        -0.306531         2.024619
 O         4.039721        -0.696620         2.587831
 H         3.783459         2.219652         0.634634
 H         3.350420         1.039976        -0.558350
 H         2.248656         2.514549        -0.276454
 H         2.111844         1.380132         3.312834
 H        -0.754508        -0.747587        -0.146087
 H        -0.131034         1.007016        -0.498417
 H         0.680971        -0.366767        -1.078289
 H         1.196393        -2.152262         1.848522
 H         2.428613        -1.787870         0.525476
 H         3.654904        -1.293609         3.292963
