19
Iteration:  3273charge 0 multiplicity 1
 C         3.234300         1.575807         0.320532
 C         2.300555         0.834980         1.203857
 C         1.770234         0.760694         2.574103
 O         0.426120         0.322624         2.121580
 C         1.001685        -0.111503         0.828465
 C         0.001131        -0.178011        -0.265607
 C         1.881697        -1.286297         1.372709
 C         2.744030        -0.259156         2.057308
 O         4.114221        -0.416103         2.464702
 H         4.171189         1.584607         0.993059
 H         3.458875         0.920916        -0.499595
 H         2.974589         2.472928        -0.129348
 H         1.716940         1.359224         3.430533
 H        -0.865886        -0.503906         0.201760
 H        -0.198224         0.814792        -0.470966
 H         0.230577        -0.849010        -1.032458
 H         1.275929        -2.089786         1.776813
 H         2.538186        -1.677369         0.541815
 H         4.214101        -0.637215         3.414708
