19
Iteration:  2252charge 0 multiplicity 1
 C         3.209509         1.654859         0.314911
 C         2.255942         0.893678         1.098177
 C         1.741985         0.745551         2.563108
 O         0.412908         0.342113         2.122398
 C         1.107740        -0.145057         0.867310
 C        -0.033602        -0.131668        -0.218667
 C         1.936121        -1.396445         1.250810
 C         2.773529        -0.303890         2.108686
 O         4.087862        -0.450081         2.560697
 H         4.044140         2.162409         0.954313
 H         3.818565         1.139053        -0.500701
 H         2.646455         2.389736        -0.132883
 H         1.970588         1.065144         3.543427
 H        -0.874371        -0.729304         0.316487
 H        -0.432190         0.886091        -0.630235
 H         0.191875        -0.782197        -1.119174
 H         1.380946        -2.244226         1.748320
 H         2.571758        -1.631833         0.272925
 H         4.140394        -0.397518         3.512494
