19
Iteration:  2247charge 0 multiplicity 1
 C         3.229122         1.632983         0.298631
 C         2.244608         0.846609         1.141699
 C         1.735097         0.727885         2.547053
 O         0.448156         0.317096         2.179446
 C         1.077878        -0.147626         0.815473
 C         0.018694        -0.152101        -0.220748
 C         1.881530        -1.343495         1.233325
 C         2.763030        -0.259869         2.073741
 O         4.092930        -0.423618         2.569228
 H         3.866386         2.143180         0.951222
 H         3.749766         1.152101        -0.511515
 H         2.697614         2.531019        -0.245419
 H         2.064251         1.170513         3.546800
 H        -0.776844        -0.640761         0.261380
 H        -0.219774         0.835403        -0.449076
 H         0.163680        -0.730346        -1.104426
 H         1.380559        -2.220286         1.602557
 H         2.448752        -1.690374         0.448962
 H         3.935501        -0.565383         3.557469
