19
Iteration:   844
 C         2.987482         2.093905         0.597582
 C         2.300116         0.869069         1.107014
 C         1.742449         0.602121         2.524142
 O         0.546015         0.117646         2.155248
 C         1.046720        -0.109026         0.866817
 C         0.057913        -0.116874        -0.241602
 C         1.983528        -1.287009         1.094766
 C         2.830236        -0.301117         1.906288
 O         3.975479        -0.618587         2.674964
 H         3.830900         2.321119         1.265910
 H         3.395424         1.895775        -0.461768
 H         2.375471         2.951203         0.522433
 H         1.978527         1.258383         3.443157
 H        -0.774932        -0.692420        -0.025397
 H        -0.165548         0.852258        -0.691591
 H         0.681225        -0.623382        -1.029281
 H         1.486963        -2.046500         1.719997
 H         2.448894        -1.635577         0.211910
 H         4.381999        -1.357767         2.215441
