19
Iteration:  2140charge 0 multiplicity 1
 C         2.864757         1.901896         0.270645
 C         2.287839         0.773726         1.030370
 C         1.910201         0.805954         2.475653
 O         0.478625         0.390711         2.203358
 C         0.985214        -0.022335         0.939438
 C         0.250394        -0.203512        -0.319944
 C         1.883571        -1.373102         1.428067
 C         2.886311        -0.327435         1.958079
 O         3.971927        -0.730477         2.630578
 H         3.744665         2.176792         0.773863
 H         3.265837         1.543633        -0.729655
 H         2.199157         2.681467         0.126685
 H         2.092842         1.411283         3.448510
 H        -0.375203        -1.118763        -0.136619
 H        -0.406688         0.597514        -0.645925
 H         1.018962        -0.387485        -1.115270
 H         1.405425        -2.095245         2.112538
 H         2.446854        -1.840556         0.632229
 H         3.945125        -0.269846         3.511637
