19
Iteration:  1941
 C         2.917980         1.817266         0.279803
 C         2.360767         0.798696         1.171613
 C         1.859479         0.717007         2.540121
 O         0.531947         0.427983         2.151560
 C         1.103832        -0.084038         0.883613
 C         0.090836        -0.146363        -0.261036
 C         1.916185        -1.435095         1.224198
 C         2.760679        -0.363824         1.973676
 O         3.993366        -0.575587         2.677461
 H         3.724514         2.368623         0.733015
 H         3.183388         1.346301        -0.683957
 H         2.139313         2.593610         0.130593
 H         2.160766         1.208481         3.441542
 H        -0.483703        -1.065956        -0.069671
 H        -0.586551         0.725490        -0.521476
 H         0.687453        -0.305642        -1.170179
 H         1.486479        -2.199749         1.944786
 H         2.475587        -1.972004         0.427177
 H         4.060464        -0.053194         3.470502
