19
Iteration:  2073charge 0 multiplicity 1
 C         3.144469         1.845666         0.332409
 C         2.344793         0.857840         1.117990
 C         1.760920         0.780694         2.499839
 O         0.417211         0.293855         2.120759
 C         1.038465        -0.221440         0.902995
 C        -0.013692        -0.133795        -0.235340
 C         1.978898        -1.403528         1.287847
 C         2.819917        -0.331767         2.035092
 O         4.037496        -0.563680         2.615145
 H         3.959822         2.255707         0.867735
 H         3.644067         1.251320        -0.462564
 H         2.540754         2.584209        -0.193781
 H         2.120186         1.621391         3.252770
 H        -0.977457        -0.407075         0.271404
 H        -0.251057         0.871238        -0.588089
 H         0.135525        -0.798235        -1.117419
 H         1.469747        -2.254770         1.793791
 H         2.526191        -1.609589         0.405704
 H         4.037905        -0.000907         3.415563
