19
Iteration:   837
 C         2.968461         2.065055         0.626529
 C         2.357918         0.841011         1.129948
 C         1.819104         0.585130         2.509233
 O         0.499210         0.174320         2.139421
 C         1.075832        -0.083976         0.826030
 C         0.021338        -0.169893        -0.261517
 C         2.003006        -1.286218         1.123800
 C         2.840103        -0.287356         1.964888
 O         3.951483        -0.630641         2.643008
 H         3.817965         2.465417         1.221585
 H         3.288859         1.889586        -0.405517
 H         2.244498         2.893675         0.652878
 H         1.768477         1.301806         3.391589
 H        -0.979392        -0.672572        -0.011881
 H        -0.183935         0.890891        -0.507925
 H         0.570806        -0.589599        -1.131971
 H         1.472754        -2.121688         1.636379
 H         2.577554        -1.551159         0.167479
 H         4.548916        -1.251055         2.155204
