19
Iteration:  1896
 C         3.033439         1.882029         0.269883
 C         2.243754         0.886360         1.058902
 C         1.796105         0.826213         2.551087
 O         0.483443         0.234032         2.173999
 C         1.092537        -0.113089         0.854764
 C         0.012061        -0.132743        -0.276093
 C         2.066448        -1.377750         1.395267
 C         2.812775        -0.277305         2.000751
 O         3.986082        -0.726379         2.620823
 H         3.817199         2.351298         0.903689
 H         3.466389         1.413245        -0.585342
 H         2.403034         2.780597        -0.044688
 H         1.713391         1.272068         3.456130
 H        -0.947675        -0.398629         0.183385
 H        -0.035410         0.923987        -0.757251
 H         0.261578        -0.765156        -1.165228
 H         1.409977        -2.066609         1.975508
 H         2.650043        -2.010390         0.649546
 H         4.430376        -0.030317         3.122143
