19
Iteration:  2198
 C         2.974442         1.736917         0.224802
 C         2.290022         0.734709         1.127454
 C         1.766667         0.682390         2.562758
 O         0.406032         0.420715         2.168421
 C         1.126743        -0.187425         0.913520
 C         0.165919        -0.074324        -0.298229
 C         1.905363        -1.346410         1.389537
 C         2.828503        -0.332169         2.088490
 O         4.056934        -0.462075         2.569249
 H         3.903069         2.137322         0.805192
 H         3.310391         1.161157        -0.671146
 H         2.571468         2.609240        -0.254309
 H         1.841481         1.455452         3.255284
 H        -0.713333        -0.816979        -0.380074
 H        -0.203997         1.020449        -0.166641
 H         0.626674        -0.142074        -1.327063
 H         1.278538        -2.116393         1.973864
 H         2.371824        -2.027303         0.535816
 H         4.280441        -1.249391         3.041814
