19
Iteration:  3807
 C         2.954367         1.797856         0.121740
 C         2.315329         0.685471         1.077010
 C         1.857948         0.851504         2.453722
 O         0.472963         0.482866         2.163991
 C         1.067896        -0.125962         0.913129
 C         0.121010        -0.030831        -0.246260
 C         1.845187        -1.398941         1.550138
 C         2.807796        -0.362012         2.089108
 O         4.118749        -0.727106         2.587601
 H         2.055210         2.330220        -0.304356
 H         3.477771         2.508418         0.762432
 H         3.552935         1.461649        -0.721978
 H         2.270890         1.706874         3.035287
 H        -0.861667        -0.667566        -0.173861
 H        -0.226739         1.142178        -0.377581
 H         0.580359        -0.363849        -1.268516
 H         1.255072        -2.005603         2.195527
 H         2.252695        -1.999584         0.659698
 H         3.916515        -1.284570         3.377870
