19
Iteration:  4934charge 0 multiplicity 1
 C         3.185672         1.540919         0.155068
 C         2.353719         0.749272         1.187583
 C         1.773464         0.804415         2.529672
 O         0.485449         0.234658         2.195852
 C         1.019226        -0.059991         0.948593
 C         0.165754        -0.175359        -0.298907
 C         1.817736        -1.283501         1.337529
 C         2.696026        -0.324814         2.203300
 O         4.033986        -0.275656         2.519215
 H         2.918008         1.063016        -0.836863
 H         2.790433         2.601382        -0.058458
 H         4.218264         1.483272         0.444643
 H         1.716078         1.622357         3.231719
 H        -0.922672        -0.620592        -0.071520
 H        -0.129375         0.863661        -0.842135
 H         0.655502        -0.840533        -1.105386
 H         1.251949        -2.151650         1.665291
 H         2.486532        -1.760805         0.692519
 H         3.934398        -0.678292         3.402222
