19
Iteration:  1270charge 0 multiplicity 1
 C         3.065380         1.936737         0.372490
 C         2.287606         0.882541         1.101878
 C         1.773727         0.761428         2.489756
 O         0.461440         0.127389         2.198492
 C         1.046515        -0.184312         0.855859
 C         0.104972        -0.034117        -0.247510
 C         1.956583        -1.386821         1.249489
 C         2.730710        -0.329548         2.039753
 O         4.045145        -0.552538         2.670676
 H         3.868051         2.321537         1.077399
 H         3.405550         1.440657        -0.545036
 H         2.338199         2.795191         0.027242
 H         1.798585         1.314245         3.454274
 H        -0.860910        -0.609886        -0.087069
 H        -0.169461         1.048678        -0.442151
 H         0.571499        -0.444555        -1.191039
 H         1.525625        -2.292893         1.822492
 H         2.560721        -1.654383         0.366331
 H         4.634599        -0.945479         1.990073
