19
Iteration:  1679charge 0 multiplicity 1
 C         3.000018         1.778438         0.329463
 C         2.341114         0.774020         1.157786
 C         1.825792         0.645304         2.604469
 O         0.436555         0.509157         2.152832
 C         1.122053        -0.085053         0.862457
 C         0.141522        -0.222571        -0.286888
 C         1.808029        -1.434747         1.336222
 C         2.747190        -0.417946         2.052717
 O         4.086710        -0.408993         2.520931
 H         3.729336         2.407363         0.809255
 H         3.470812         1.267721        -0.597900
 H         2.207038         2.434683         0.006332
 H         2.001034         1.511719         3.325057
 H        -0.792776        -0.520789         0.115925
 H        -0.132550         0.831828        -0.590341
 H         0.439247        -0.695788        -1.224613
 H         1.341808        -2.239476         1.945939
 H         2.486695        -1.841989         0.551290
 H         4.416038        -1.270116         2.915515
