19
Iteration:  1066charge 0 multiplicity 1
 C         2.920155         1.960121         0.490183
 C         2.378452         0.780919         1.238201
 C         1.715572         0.614841         2.642848
 O         0.398639         0.218382         2.097231
 C         1.055723        -0.142357         0.862777
 C         0.117053        -0.013035        -0.306674
 C         1.944913        -1.354393         1.171945
 C         2.815526        -0.393750         2.066720
 O         4.141988        -0.523707         2.451853
 H         3.845061         2.256531         1.119719
 H         3.483276         1.557862        -0.449004
 H         2.272716         2.810363         0.344929
 H         1.607199         1.207690         3.480223
 H        -0.789134        -0.585638        -0.169148
 H        -0.160867         0.996653        -0.548127
 H         0.734766        -0.409857        -1.037779
 H         1.483025        -2.239095         1.487314
 H         2.535652        -1.755376         0.308257
 H         4.336066        -0.461520         3.391068
