19
Iteration:   347charge 0 multiplicity 1
 C         2.878290         1.913847         0.359220
 C         2.315164         0.830680         1.180113
 C         1.758984         0.583025         2.534611
 O         0.435728         0.027120         2.155032
 C         1.122145        -0.109226         0.798398
 C         0.051755         0.306937        -0.237622
 C         2.094320        -1.409242         1.176050
 C         2.852611        -0.329283         2.037942
 O         4.027052        -0.582582         2.705034
 H         3.870505         2.171913         0.815024
 H         3.000927         1.328775        -0.589749
 H         2.169073         2.771302         0.148318
 H         1.626393         1.126611         3.528379
 H        -0.802563        -0.304296         0.114506
 H        -0.307548         1.357445        -0.091425
 H         0.387256         0.103925        -1.317133
 H         1.771355        -2.308594         1.719707
 H         2.677232        -1.873497         0.303675
 H         4.690874        -1.010112         2.140621
