19
Iteration:  2814
 C         3.103199         1.825987         0.179102
 C         2.319955         0.843764         1.100176
 C         1.816434         0.803506         2.506757
 O         0.462280         0.330819         2.181681
 C         1.038643        -0.069058         0.948186
 C         0.124482        -0.105368        -0.199728
 C         1.895659        -1.355054         1.375248
 C         2.740866        -0.346377         2.065047
 O         4.032228        -0.675615         2.535917
 H         3.849479         2.390736         0.631483
 H         3.475358         1.402235        -0.790761
 H         2.364035         2.455157        -0.207359
 H         1.985637         1.464207         3.313417
 H        -0.739302        -0.721779        -0.080001
 H        -0.319425         0.874083        -0.307121
 H         0.662853        -0.394578        -1.037901
 H         1.481384        -2.163839         2.171594
 H         2.401011        -1.809812         0.481296
 H         3.824371        -1.220747         3.356406
