19
Iteration:  1860
 C         2.999683         1.858328         0.306310
 C         2.331258         0.735338         1.140977
 C         1.771124         0.743371         2.542520
 O         0.407154         0.418597         2.177202
 C         1.096813        -0.039136         0.986483
 C         0.121889        -0.163077        -0.299838
 C         1.877147        -1.465246         1.251484
 C         2.783256        -0.478364         2.033295
 O         4.120127        -0.524119         2.538103
 H         3.744100         2.201787         1.128171
 H         3.617010         1.625398        -0.513715
 H         2.298177         2.725349        -0.024523
 H         2.001134         1.280741         3.570349
 H        -0.928659        -0.492339        -0.026133
 H        -0.035823         0.740735        -0.944499
 H         0.501915        -1.058857        -0.880954
 H         1.375885        -2.246886         1.843210
 H         2.556409        -1.655606         0.369700
 H         4.026998         0.197411         3.207395
