19
Iteration:  2938charge 0 multiplicity 1
 C         3.026364         1.681208         0.172075
 C         2.352945         0.779881         1.163223
 C         1.828174         0.753482         2.590734
 O         0.514799         0.428159         2.214508
 C         1.017564        -0.056452         0.922525
 C         0.150450        -0.056108        -0.225625
 C         1.911066        -1.427398         1.268836
 C         2.722590        -0.390936         1.980829
 O         3.994132        -0.515809         2.599803
 H         3.980011         2.124247         0.288843
 H         3.104641         1.038576        -0.767447
 H         2.335564         2.582889         0.209776
 H         1.884739         1.389683         3.522694
 H        -0.799276        -0.577069        -0.005729
 H         0.041594         0.919034        -0.654491
 H         0.704434        -0.662963        -1.007001
 H         1.455427        -2.478271         1.738542
 H         2.501177        -1.634688         0.334217
 H         3.906641        -0.769186         3.554204
