19
Iteration:  1714charge 0 multiplicity 1
 C         3.061177         1.847544         0.258850
 C         2.237292         0.838793         1.093214
 C         1.780742         0.810389         2.547709
 O         0.461248         0.291203         2.237669
 C         0.998295        -0.189455         0.906469
 C         0.173503        -0.099703        -0.307325
 C         1.934132        -1.382367         1.459079
 C         2.742236        -0.299232         1.972734
 O         4.091323        -0.630735         2.517367
 H         3.904257         2.185133         0.788679
 H         3.451404         1.300890        -0.689974
 H         2.516838         2.633230        -0.134364
 H         1.890471         1.737771         2.949763
 H        -0.575390        -0.906057        -0.303819
 H        -0.259027         0.920144        -0.244813
 H         0.766637        -0.297115        -1.182788
 H         1.340269        -2.097148         2.111061
 H         2.461205        -1.831466         0.654778
 H         3.900027        -0.602084         3.513289
