19
Iteration:  2809
 C         3.030957         1.808708         0.187995
 C         2.341019         0.844896         1.069366
 C         1.792412         0.799675         2.503636
 O         0.456901         0.343690         2.199180
 C         1.046913        -0.102875         0.907535
 C         0.120636        -0.061464        -0.180059
 C         1.933870        -1.352443         1.412334
 C         2.786018        -0.336427         2.053644
 O         4.040844        -0.690009         2.561253
 H         3.952680         2.360683         0.718823
 H         3.343199         1.185950        -0.657661
 H         2.216135         2.480417        -0.319207
 H         2.134151         1.470927         3.373426
 H        -0.776911        -0.749401        -0.151091
 H        -0.224434         0.977559        -0.437623
 H         0.737754        -0.406422        -1.114225
 H         1.389929        -2.062823         1.901069
 H         2.376599        -1.771348         0.525072
 H         3.634941        -1.217502         3.254898
