19
Iteration:   510charge 0 multiplicity 1
 C         2.973355         1.869512         0.248658
 C         2.245275         0.903388         1.197073
 C         1.746028         0.620512         2.624023
 O         0.515489         0.124466         2.242959
 C         1.141401        -0.058620         0.806406
 C         0.107259         0.087136        -0.218491
 C         2.037297        -1.355431         1.096576
 C         2.812148        -0.296342         2.007519
 O         3.910935        -0.681809         2.742762
 H         3.901096         2.251281         0.768455
 H         3.157960         1.432995        -0.696832
 H         2.500378         2.899889        -0.107912
 H         1.833581         1.084025         3.556180
 H        -0.700887        -0.584926         0.198402
 H        -0.347562         1.076045        -0.342422
 H         0.509830        -0.190812        -1.222001
 H         1.686627        -2.333479         1.399434
 H         2.548026        -1.561963         0.123171
 H         4.696735        -0.482090         2.136986
