19
Iteration:   750
 C         2.924988         1.952218         0.423557
 C         2.265277         0.876242         1.153920
 C         1.766669         0.675125         2.580332
 O         0.406000         0.115262         2.265548
 C         1.014157        -0.143739         0.945204
 C         0.318198         0.033062        -0.336866
 C         1.944758        -1.343904         1.214366
 C         2.768258        -0.338376         2.027733
 O         4.075670        -0.642631         2.446127
 H         3.671169         2.535112         1.031732
 H         3.277318         1.492302        -0.512646
 H         2.100313         2.739589         0.084571
 H         1.917883         1.214995         3.607925
 H        -0.411512        -0.824098        -0.554008
 H        -0.068087         1.036237        -0.557137
 H         1.073041         0.036128        -1.170720
 H         1.590819        -2.238483         1.758785
 H         2.201634        -1.458515         0.110307
 H         4.276693        -0.708757         3.427608
