19
Iteration:  1313
 C         2.938042         1.881308         0.287205
 C         2.340983         0.824986         1.224877
 C         1.812119         0.640814         2.557599
 O         0.483405         0.324123         2.144155
 C         1.099205        -0.041430         0.899936
 C         0.084567        -0.098370        -0.274885
 C         1.957071        -1.359000         1.170024
 C         2.771266        -0.469683         2.053540
 O         4.066514        -0.572438         2.635015
 H         3.766037         2.475864         0.764635
 H         3.403718         1.409836        -0.593123
 H         2.048638         2.582524        -0.091219
 H         2.005456         1.301762         3.427656
 H        -0.363780        -1.127055        -0.365501
 H        -0.707188         0.696515        -0.158576
 H         0.516965         0.085276        -1.292087
 H         1.296191        -2.194826         1.637513
 H         2.538742        -1.567061         0.275021
 H         4.029835        -0.311705         3.622567
