19
Iteration:  1668charge 0 multiplicity 1
 C         2.984108         1.823372         0.311385
 C         2.361970         0.757714         1.248617
 C         1.833688         0.652087         2.575769
 O         0.468579         0.491406         2.030606
 C         1.015742        -0.074421         0.889295
 C         0.046706        -0.135509        -0.255779
 C         1.897510        -1.477236         1.345052
 C         2.834963        -0.431266         2.081550
 O         4.069615        -0.399157         2.542817
 H         3.808364         2.292125         0.829883
 H         3.513646         1.222082        -0.549305
 H         2.393641         2.536224        -0.218982
 H         1.956161         1.307902         3.555622
 H        -0.802424        -0.685586         0.075948
 H        -0.132689         0.789131        -0.874852
 H         0.501620        -0.966549        -0.848901
 H         1.414660        -2.194211         2.041328
 H         2.141968        -1.921253         0.326329
 H         4.266230        -1.290154         2.847874
