19
Iteration:  1735
 C         2.997105         1.768436         0.229795
 C         2.358177         0.834318         1.084162
 C         1.767038         0.746841         2.517545
 O         0.456229         0.342187         2.228937
 C         1.107214        -0.097696         0.855948
 C         0.091981        -0.126538        -0.280858
 C         1.933478        -1.363995         1.380072
 C         2.747422        -0.309364         2.024016
 O         4.021609        -0.610933         2.608170
 H         3.866351         2.081374         0.740764
 H         3.354187         1.313405        -0.817417
 H         2.405022         2.596179         0.008425
 H         1.936585         1.125574         3.470691
 H        -0.488808        -1.023796        -0.406091
 H        -0.474245         0.800493        -0.060943
 H         0.592997         0.010885        -1.225955
 H         1.472835        -2.129244         2.042458
 H         2.455621        -1.921244         0.615273
 H         4.568267        -0.052538         3.222373
