19
Iteration:  3246
 C         3.222164         1.753536         0.291145
 C         2.393826         0.779020         1.103200
 C         1.789675         0.864180         2.419582
 O         0.426486         0.339858         2.157315
 C         1.007172        -0.175141         0.894015
 C         0.027332        -0.143745        -0.196152
 C         1.897377        -1.424715         1.420466
 C         2.720948        -0.329629         2.041703
 O         4.025199        -0.508462         2.506260
 H         3.836099         2.266754         1.037797
 H         3.910217         1.252460        -0.482906
 H         2.655554         2.678140        -0.173304
 H         1.853537         1.564151         3.299994
 H        -0.816165        -0.893989         0.137246
 H        -0.338626         0.955478        -0.135093
 H         0.457912        -0.484456        -1.217145
 H         1.312613        -2.229575         1.882350
 H         2.404002        -1.857625         0.577106
 H         4.160531        -0.508659         3.472416
