19
Iteration:  3836
 C         2.993630         1.717419         0.122114
 C         2.372645         0.712783         1.107415
 C         1.874437         0.783318         2.487782
 O         0.528678         0.437317         2.176845
 C         1.029057        -0.144513         0.930838
 C         0.110002         0.027430        -0.210411
 C         1.823593        -1.399902         1.442864
 C         2.764465        -0.388874         2.042319
 O         4.058645        -0.576637         2.600271
 H         2.158238         1.874387        -0.531223
 H         3.216019         2.749577         0.431894
 H         3.921272         1.357355        -0.503823
 H         2.322657         1.400983         3.191924
 H        -0.929635        -0.273778         0.034284
 H         0.086861         1.067424        -0.404923
 H         0.497186        -0.537477        -0.983215
 H         1.186638        -2.188303         2.021729
 H         2.130118        -1.940416         0.548831
 H         3.773685        -1.043112         3.398883
