19
Iteration:   308charge 0 multiplicity 1
 C         2.888078         1.889517         0.405703
 C         2.266717         0.796593         1.241252
 C         1.758157         0.495431         2.630360
 O         0.449190         0.153090         2.262300
 C         1.027569        -0.098827         0.946898
 C         0.237614         0.173853        -0.343952
 C         1.967947        -1.387023         1.138663
 C         2.814403        -0.439731         1.918479
 O         4.027585        -0.477483         2.594218
 H         3.721184         2.366055         0.900663
 H         3.278146         1.513302        -0.572854
 H         2.222378         2.751917         0.179390
 H         1.976484         0.996865         3.594593
 H        -0.548647        -0.617522        -0.478551
 H        -0.129596         1.178217        -0.398726
 H         0.837721         0.053699        -1.199822
 H         1.569522        -2.323507         1.564188
 H         2.482123        -1.523064         0.178032
 H         4.795980        -0.447176         2.004514
