19
Iteration:  1167charge 0 multiplicity 1
 C         2.933757         2.044634         0.404814
 C         2.388809         0.794763         1.162454
 C         1.730917         0.602165         2.527452
 O         0.367576         0.279383         2.120592
 C         1.110185        -0.124178         0.842905
 C         0.148947        -0.061721        -0.252655
 C         1.986198        -1.361064         1.237258
 C         2.794940        -0.386428         2.044935
 O         4.110155        -0.587840         2.590034
 H         3.838469         2.446914         0.877120
 H         3.321334         1.639643        -0.572460
 H         2.021199         2.791133         0.299972
 H         1.913682         1.348280         3.413585
 H        -0.487912        -0.953736        -0.102232
 H        -0.445210         0.830208        -0.071126
 H         0.502546        -0.050864        -1.287259
 H         1.277905        -2.086210         1.707562
 H         2.587561        -1.734315         0.345963
 H         4.072535        -1.468938         3.121451
