19
Iteration:  4035charge 0 multiplicity 1
 C         2.967263         1.690849         0.061737
 C         2.396765         0.717262         1.082737
 C         1.921045         0.716729         2.488404
 O         0.609184         0.461903         2.255828
 C         1.078547        -0.132550         0.991291
 C         0.085919         0.055253        -0.144755
 C         1.773447        -1.396655         1.324039
 C         2.707482        -0.381228         2.013198
 O         3.980851        -0.596281         2.593296
 H         3.884781         1.341194        -0.475306
 H         2.100085         1.873505        -0.619879
 H         3.322769         2.665854         0.499726
 H         2.367606         1.454083         3.115566
 H        -0.859891        -0.204191         0.307527
 H         0.170593         1.132875        -0.382676
 H         0.301903        -0.380310        -1.059513
 H         1.176477        -2.249097         1.907841
 H         2.542017        -1.854165         0.544357
 H         3.758836        -0.938727         3.490021
