19
Iteration:  4947charge 0 multiplicity 1
 C         3.188930         1.619991         0.143103
 C         2.285384         0.806915         1.082520
 C         1.702036         0.807037         2.582493
 O         0.441872         0.318056         2.203584
 C         1.079018        -0.190022         0.866522
 C         0.128832        -0.191429        -0.261637
 C         1.868193        -1.377280         1.392942
 C         2.718879        -0.265578         2.123868
 O         4.031779        -0.364498         2.557320
 H         3.065127         1.285511        -0.884968
 H         3.173926         2.747762         0.259780
 H         4.280295         1.348132         0.306495
 H         1.866456         1.549667         3.366019
 H        -0.828657        -0.675514        -0.002764
 H         0.032485         0.953515        -0.639940
 H         0.618719        -0.759769        -1.059713
 H         1.273208        -2.088285         1.972906
 H         2.410891        -1.700143         0.561150
 H         4.233922        -0.500421         3.500611
