19
Iteration:  3863charge 0 multiplicity 1
 C         3.151841         1.614653         0.122926
 C         2.368201         0.788106         1.135846
 C         1.802645         0.755228         2.538259
 O         0.535985         0.418361         2.247605
 C         0.986617        -0.073420         0.926816
 C         0.058740        -0.045954        -0.185538
 C         1.794274        -1.351499         1.286288
 C         2.738412        -0.355854         2.047524
 O         4.065820        -0.537651         2.557856
 H         2.500921         1.746910        -0.794835
 H         3.434916         2.637130         0.384509
 H         4.013331         1.109945        -0.151422
 H         2.253961         1.131474         3.501004
 H        -0.846126        -0.504761         0.286566
 H        -0.277940         1.012700        -0.589056
 H         0.489404        -0.839258        -0.948270
 H         1.287874        -2.099199         1.802043
 H         2.237118        -1.833529         0.371723
 H         3.839251        -0.493918         3.497491
