19
Iteration:  2176
 C         2.883047         1.771335         0.252170
 C         2.437182         0.714633         1.157018
 C         1.768322         0.895816         2.529682
 O         0.452730         0.388317         2.105307
 C         1.104605        -0.082933         0.957727
 C         0.202488        -0.097555        -0.332572
 C         1.798385        -1.407109         1.435789
 C         2.739654        -0.368900         2.063499
 O         4.156277        -0.570219         2.543114
 H         3.799349         2.396884         0.590457
 H         2.961209         1.415059        -0.803723
 H         2.076457         2.472166         0.137660
 H         1.675167         1.166108         3.528802
 H        -0.391181        -1.081635        -0.397596
 H        -0.466548         0.828957        -0.362319
 H         0.759436        -0.175933        -1.309111
 H         1.339760        -2.270937         2.017169
 H         2.594784        -1.946394         0.751574
 H         4.077289        -1.063358         3.421337
