19
Iteration:  1276
 C         3.068589         1.930750         0.345863
 C         2.275810         0.915858         1.143078
 C         1.785386         0.729489         2.485920
 O         0.475604         0.124300         2.201508
 C         1.025028        -0.223735         0.866291
 C         0.090480        -0.049109        -0.243299
 C         1.960640        -1.355332         1.249790
 C         2.799491        -0.322726         2.003176
 O         3.976190        -0.578971         2.696172
 H         3.798365         2.389717         0.971105
 H         3.476470         1.501376        -0.577966
 H         2.476727         2.790910         0.038256
 H         1.977967         1.396545         3.308297
 H        -0.841798        -0.555326        -0.207235
 H        -0.152100         0.992229        -0.305343
 H         0.729684        -0.314842        -1.093124
 H         1.501722        -2.211104         1.725690
 H         2.417131        -1.782738         0.337660
 H         4.682165        -0.518226         1.952434
