19
Iteration:  1466charge 0 multiplicity 1
 C         3.079109         1.873095         0.310094
 C         2.326984         0.864451         1.136481
 C         1.799352         0.725025         2.505622
 O         0.451041         0.300044         2.208181
 C         1.079696        -0.118826         0.937175
 C         0.025058        -0.134592        -0.275530
 C         1.971777        -1.389007         1.255159
 C         2.812600        -0.369565         1.939496
 O         3.962077        -0.604093         2.690355
 H         3.877961         2.405062         0.866543
 H         3.519667         1.382731        -0.508494
 H         2.352348         2.691464        -0.069478
 H         1.966460         1.265973         3.453272
 H        -0.996273        -0.352857         0.116191
 H        -0.100784         0.793149        -0.848674
 H         0.287740        -0.862467        -1.026552
 H         1.599051        -2.224819         1.910289
 H         2.522071        -1.819167         0.421730
 H         4.589667         0.099335         2.325659
