19
Iteration:   921
 C         2.915823         1.927796         0.423079
 C         2.330636         0.844205         1.247505
 C         1.692993         0.564436         2.638665
 O         0.422620         0.178410         2.188787
 C         1.051575        -0.179084         0.872917
 C         0.190421         0.096007        -0.353908
 C         2.035980        -1.397017         1.170823
 C         2.786100        -0.334540         2.055951
 O         4.055526        -0.601243         2.523615
 H         3.686879         2.451573         1.009290
 H         3.382142         1.712899        -0.604672
 H         2.099354         2.567893         0.198596
 H         1.636483         0.910646         3.776360
 H        -0.418100        -0.674944        -0.709365
 H        -0.426963         0.965947        -0.183953
 H         0.865168         0.315435        -1.211882
 H         1.685989        -2.309286         1.673057
 H         2.621675        -1.732890         0.364361
 H         4.538014         0.207944         2.345541
