19
Iteration:  4879
 C         3.081892         1.671619         0.143473
 C         2.375122         0.709526         1.093581
 C         1.715983         0.936252         2.443309
 O         0.464341         0.313613         2.186483
 C         1.094116        -0.175038         0.912734
 C         0.108953        -0.082106        -0.240344
 C         1.881805        -1.395058         1.453999
 C         2.781801        -0.345989         2.130427
 O         4.046253        -0.457788         2.573180
 H         4.016233         1.161097        -0.247912
 H         2.393441         2.098036        -0.673821
 H         3.432306         2.553760         0.645814
 H         1.901637         1.572297         3.313483
 H        -0.731291        -0.913834        -0.183163
 H        -0.385860         0.935681        -0.458663
 H         0.597607        -0.275779        -1.277407
 H         1.277629        -2.064433         2.081155
 H         2.393066        -1.871683         0.650577
 H         3.830110        -0.789012         3.461443
