19
Iteration:  1111charge 0 multiplicity 1
 C         3.001190         1.936277         0.333187
 C         2.247719         0.885213         1.120314
 C         1.749031         0.641364         2.601053
 O         0.484035         0.099826         2.221239
 C         1.018012        -0.132204         0.958770
 C         0.196526         0.002344        -0.305274
 C         1.963423        -1.311805         1.172152
 C         2.752648        -0.301993         1.954805
 O         4.022270        -0.613729         2.700993
 H         3.776888         2.460322         0.945029
 H         3.485446         1.579383        -0.641652
 H         2.233537         2.731189         0.092157
 H         1.861901         1.114511         3.615436
 H        -0.475221        -0.843151        -0.534086
 H        -0.417057         0.889382        -0.250790
 H         0.916684         0.137553        -1.069283
 H         1.600174        -2.231713         1.604302
 H         2.460994        -1.615942         0.189075
 H         4.673767        -0.712899         1.998285
