19
Iteration:  1584charge 0 multiplicity 1
 C         3.005960         1.775678         0.231151
 C         2.369399         0.797713         1.167866
 C         1.820656         0.704052         2.558706
 O         0.420884         0.420828         2.098554
 C         1.033578        -0.041943         0.869150
 C         0.106387        -0.140054        -0.200489
 C         1.884693        -1.392354         1.254663
 C         2.776235        -0.444168         2.068908
 O         4.099403        -0.566865         2.694181
 H         3.938226         2.208099         0.565445
 H         3.243144         1.352767        -0.783582
 H         2.370829         2.686557         0.193612
 H         1.837784         1.280782         3.502015
 H        -0.440324        -1.058670         0.083920
 H        -0.676211         0.614347        -0.379504
 H         0.765699        -0.267133        -1.053298
 H         1.260721        -2.208583         1.704818
 H         2.293074        -1.755543         0.349785
 H         4.487657         0.301364         2.451099
