19
Iteration:  1022charge 0 multiplicity 1
 C         3.040175         2.136999         0.556786
 C         2.304302         0.859183         1.136580
 C         1.755325         0.583009         2.559545
 O         0.505375         0.138844         2.154151
 C         1.028283        -0.068645         0.848591
 C         0.055276        -0.163208        -0.298273
 C         1.976673        -1.322463         1.203573
 C         2.811262        -0.361320         1.973786
 O         3.987163        -0.656754         2.606385
 H         3.925450         2.551668         1.125891
 H         3.419096         1.888690        -0.491232
 H         2.392564         2.977739         0.540086
 H         1.908136         1.260058         3.304462
 H        -0.947030        -0.563277        -0.247736
 H        -0.086268         0.832267        -0.702852
 H         0.604445        -0.641609        -1.045581
 H         1.525118        -2.088708         1.759605
 H         2.448317        -1.874591         0.376117
 H         4.636445        -0.106941         2.161625
