19
Iteration:  3354
 C         3.041159         1.831817         0.140898
 C         2.361634         0.766745         1.038636
 C         1.771218         0.806919         2.482626
 O         0.454798         0.377895         2.080734
 C         1.077470        -0.191333         0.857322
 C         0.171370        -0.090356        -0.196766
 C         1.884700        -1.398487         1.482446
 C         2.763706        -0.378895         2.152277
 O         4.035330        -0.586115         2.596124
 H         3.977740         2.044693         0.437864
 H         2.990193         1.345856        -0.852530
 H         2.293060         2.710751         0.270313
 H         2.036649         1.472221         3.390194
 H        -0.746173        -0.693218         0.096784
 H        -0.150906         0.913112        -0.264109
 H         0.509987        -0.207662        -1.232097
 H         1.220535        -1.981200         2.293018
 H         2.393428        -1.947989         0.665081
 H         4.148885        -0.557973         3.579975
