19
Iteration:   304
 C         2.891054         1.902143         0.411701
 C         2.254963         0.784413         1.297640
 C         1.747311         0.496900         2.644781
 O         0.443662         0.197003         2.269617
 C         1.036420        -0.079982         0.901030
 C         0.221935         0.136260        -0.360890
 C         1.983792        -1.375028         1.160466
 C         2.807925        -0.479275         1.870036
 O         4.055868        -0.478269         2.602585
 H         3.716014         2.357805         0.992375
 H         3.253413         1.467721        -0.559984
 H         2.185879         2.663207         0.224331
 H         1.971005         1.045369         3.591490
 H        -0.540991        -0.658544        -0.424672
 H        -0.214056         1.152774        -0.389337
 H         0.935101         0.067370        -1.241808
 H         1.550912        -2.336891         1.471262
 H         2.421528        -1.547588         0.100966
 H         4.768893        -0.418138         1.908446
