19
Iteration:  3207
 C         2.906475         1.876338         0.216426
 C         2.371015         0.704282         1.087167
 C         1.935113         0.767191         2.461014
 O         0.541149         0.474615         2.179777
 C         1.082677        -0.026764         0.884606
 C         0.077223        -0.173730        -0.327045
 C         1.811727        -1.381084         1.403800
 C         2.815941        -0.414166         2.015344
 O         4.031299        -0.608651         2.685660
 H         3.533983         2.515258         0.913641
 H         3.601346         1.411933        -0.462048
 H         2.226423         2.298718        -0.434478
 H         2.251166         1.371948         3.372483
 H        -0.471267        -1.036240        -0.114642
 H        -0.734402         0.509479        -0.341886
 H         0.473113        -0.340786        -1.285000
 H         1.207051        -1.989401         2.127830
 H         2.401076        -1.971400         0.629345
 H         3.725262        -0.915870         3.561235
