19
Iteration:  1634charge 0 multiplicity 1
 C         3.065752         1.853422         0.273258
 C         2.308557         0.794733         1.040895
 C         1.799081         0.807579         2.492130
 O         0.483303         0.256139         2.231212
 C         1.073568        -0.207497         0.872293
 C         0.074033        -0.117776        -0.235878
 C         1.933177        -1.350394         1.358138
 C         2.732516        -0.283391         2.075797
 O         4.036670        -0.555248         2.563993
 H         3.943019         2.137942         0.923886
 H         3.608475         1.294605        -0.534986
 H         2.614736         2.815971        -0.042930
 H         2.025142         1.834804         2.994787
 H        -0.868446        -0.402058         0.207863
 H        -0.112663         0.855086        -0.735887
 H         0.397410        -0.832474        -1.045252
 H         1.303451        -2.095649         1.837557
 H         2.379916        -1.836496         0.420763
 H         3.916377        -1.021007         3.443002
