19
Iteration:  4063
 C         3.144976         1.682270         0.165609
 C         2.361190         0.725724         1.113094
 C         1.838167         0.717382         2.454810
 O         0.490424         0.449084         2.221756
 C         0.982224        -0.084914         0.966275
 C        -0.051097         0.037804        -0.193889
 C         1.747827        -1.388227         1.440268
 C         2.821097        -0.378642         1.996405
 O         4.175955        -0.593575         2.521998
 H         4.093010         1.246116        -0.114237
 H         2.631230         1.746061        -0.788000
 H         3.263720         2.751409         0.542409
 H         2.191263         1.499910         3.156878
 H        -1.052234        -0.456347         0.117502
 H        -0.271807         1.119801        -0.253747
 H         0.324815        -0.375459        -1.237427
 H         1.243786        -2.085738         2.042731
 H         2.185293        -1.912693         0.649873
 H         3.970047        -1.028869         3.383791
