19
Iteration:  2536
 C         2.907776         1.868817         0.194649
 C         2.328324         0.756710         1.078982
 C         1.854467         0.795934         2.522463
 O         0.493490         0.433045         2.140906
 C         1.111223        -0.100790         0.868819
 C         0.154483        -0.067252        -0.271118
 C         1.863233        -1.438816         1.387350
 C         2.804627        -0.340923         2.093980
 O         4.075017        -0.680930         2.637951
 H         3.932151         2.230094         0.572243
 H         2.919009         1.433613        -0.817232
 H         2.152117         2.637420         0.265219
 H         1.853393         1.483703         3.345827
 H        -0.535027        -0.806715         0.062852
 H        -0.452184         0.825092        -0.400405
 H         0.581603        -0.384008        -1.198019
 H         1.231195        -1.934941         2.204811
 H         2.407222        -1.892586         0.435381
 H         3.901299        -1.380032         3.275579
