19
Iteration:   439
 C         2.995009         2.009225         0.683031
 C         2.415857         0.754367         1.177534
 C         1.680825         0.739416         2.569795
 O         0.426977         0.330929         2.062267
 C         1.109134        -0.118430         0.862000
 C         0.114148        -0.153655        -0.275563
 C         1.886805        -1.358322         1.313636
 C         2.794027        -0.408007         2.001917
 O         4.112070        -0.627723         2.403193
 H         3.657495         2.405525         1.423138
 H         3.586144         2.000396        -0.289245
 H         2.323804         2.757075         0.509071
 H         1.607908         1.443065         3.386589
 H        -0.625920        -0.975238        -0.136842
 H        -0.546750         0.716297        -0.235528
 H         0.584163        -0.154565        -1.225275
 H         1.343531        -2.200524         1.824687
 H         2.386998        -1.751128         0.402297
 H         4.478573        -1.144654         1.613706
