19
Iteration:  3943charge 0 multiplicity 1
 C         3.192684         1.663789         0.296587
 C         2.393687         0.748648         1.119080
 C         1.932370         0.722831         2.423878
 O         0.461211         0.534988         2.217117
 C         0.893980        -0.029939         0.953100
 C        -0.046911        -0.211668        -0.249863
 C         1.742773        -1.359680         1.439074
 C         2.756190        -0.379588         1.991989
 O         4.148563        -0.506013         2.452926
 H         3.068761         1.744745        -0.749625
 H         3.123065         2.644195         0.743260
 H         4.257964         1.313106         0.448493
 H         2.180188         1.344027         3.261675
 H        -0.825161        -1.025405        -0.099961
 H        -0.458587         0.789089        -0.195105
 H         0.474414        -0.117682        -1.325330
 H         1.182800        -2.032708         2.207666
 H         2.045449        -2.067130         0.706963
 H         4.185784        -0.970657         3.299146
