19
Iteration:  4421charge 0 multiplicity 1
 C         2.898795         1.792562         0.144385
 C         2.406655         0.723028         1.053075
 C         1.929678         0.807774         2.493888
 O         0.541442         0.512242         2.190531
 C         1.057050        -0.145898         0.868666
 C         0.045889         0.055608        -0.265685
 C         1.714379        -1.417623         1.472547
 C         2.767339        -0.402826         2.069595
 O         4.186075        -0.724339         2.608119
 H         3.753669         1.538581        -0.526408
 H         1.954109         2.011608        -0.453805
 H         2.999695         2.649263         0.729665
 H         2.183485         1.495581         3.308888
 H        -0.896170        -0.449650         0.088190
 H        -0.165231         1.110005        -0.496110
 H         0.574709        -0.576686        -1.059200
 H         1.146335        -1.936193         2.173306
 H         2.288556        -2.055458         0.842533
 H         4.062622        -1.415941         3.285620
