19
Iteration:  4496
 C         3.249091         1.629702         0.302695
 C         2.292687         0.809442         1.074715
 C         1.831999         0.742348         2.536502
 O         0.447903         0.502190         2.222084
 C         0.951718        -0.056113         0.917413
 C        -0.084261        -0.149560        -0.212718
 C         1.873792        -1.387929         1.354688
 C         2.804001        -0.327891         1.937610
 O         4.142905        -0.531928         2.509503
 H         3.065666         1.236879        -0.772108
 H         3.204174         2.795087         0.317196
 H         4.182544         1.204086         0.467525
 H         2.034804         1.325284         3.437597
 H        -0.766363        -1.020577         0.124495
 H        -0.598834         0.818722        -0.202923
 H         0.449745        -0.373015        -1.212563
 H         1.146644        -1.991104         1.977483
 H         2.173776        -1.987839         0.474440
 H         3.997088        -0.712368         3.459102
