19
Iteration:  3193
 C         2.898362         1.847157         0.155122
 C         2.468581         0.825182         1.079444
 C         1.870994         0.770162         2.528497
 O         0.538679         0.474887         2.153115
 C         1.082134        -0.147541         0.869667
 C         0.135397        -0.200603        -0.256884
 C         1.785913        -1.345791         1.384252
 C         2.794154        -0.370936         2.095361
 O         4.018949        -0.689839         2.657831
 H         3.368057         2.791019         0.476386
 H         3.505097         1.531078        -0.728018
 H         1.953385         2.311253        -0.082520
 H         2.073624         1.523044         3.335454
 H        -0.455051        -1.085483        -0.146846
 H        -0.414980         0.755721        -0.323619
 H         0.704509        -0.139248        -1.144264
 H         1.185919        -2.016644         1.960094
 H         2.173362        -1.861725         0.536713
 H         3.933682        -0.975585         3.587894
