19
Iteration:  2671
 C         3.297406         1.755630         0.426752
 C         2.432315         0.860228         1.164761
 C         1.821256         0.712187         2.490807
 O         0.379251         0.472324         2.181713
 C         0.960276        -0.107304         0.877758
 C        -0.073866        -0.300004        -0.228475
 C         1.768537        -1.328634         1.284831
 C         2.746171        -0.391149         1.990686
 O         4.128362        -0.435263         2.473749
 H         4.163574         1.873859         1.053659
 H         3.735555         1.163001        -0.432315
 H         3.044050         2.635477        -0.029349
 H         2.113643         1.276181         3.490340
 H        -0.651820        -1.124583         0.094165
 H        -0.781333         0.496001        -0.248328
 H         0.375495        -0.531664        -1.174693
 H         1.292620        -2.185022         1.783758
 H         2.427113        -1.478292         0.473797
 H         4.096876        -1.186541         3.121062
