19
Iteration:  4115charge 0 multiplicity 1
 C         3.302539         1.584132         0.331427
 C         2.313435         0.801555         1.115746
 C         1.900431         0.844127         2.538859
 O         0.486238         0.525700         2.305016
 C         0.962655        -0.012433         0.994850
 C        -0.053916        -0.248498        -0.191563
 C         1.726821        -1.324143         1.319720
 C         2.772294        -0.318117         2.053282
 O         4.062668        -0.611667         2.260698
 H         4.316726         1.420382         0.802894
 H         3.492506         1.378226        -0.749862
 H         3.040171         2.597181         0.426980
 H         2.204108         1.505271         3.414800
 H        -0.721933        -1.011874        -0.179844
 H        -0.618885         0.597841        -0.338602
 H         0.516377        -0.331119        -1.092351
 H         0.946637        -1.986610         1.834319
 H         2.110069        -1.850999         0.402795
 H         4.206252        -0.924505         3.186175
