19
Iteration:  2723charge 0 multiplicity 1
 C         3.114787         1.793770         0.224746
 C         2.321531         0.757683         1.048274
 C         1.778095         0.768550         2.533419
 O         0.472224         0.356696         2.250300
 C         1.011285        -0.173349         0.894432
 C         0.062472        -0.084630        -0.295002
 C         1.880732        -1.346438         1.367579
 C         2.725863        -0.303420         2.050226
 O         4.112771        -0.633171         2.541250
 H         4.084527         2.042518         0.817798
 H         3.407743         1.639774        -0.777833
 H         2.575444         2.737412         0.237208
 H         1.899970         1.486915         3.417685
 H        -0.869396        -0.577351        -0.173716
 H        -0.220471         0.947421        -0.270423
 H         0.598563        -0.356085        -1.223414
 H         1.304307        -2.041991         2.139308
 H         2.416066        -1.857642         0.476848
 H         4.073877        -0.622497         3.514417
