19
Iteration:   435
 C         3.026823         2.026746         0.663452
 C         2.383778         0.827455         1.193385
 C         1.728519         0.759685         2.548474
 O         0.384116         0.319976         2.100315
 C         1.076671        -0.121892         0.824248
 C         0.110205        -0.162664        -0.275554
 C         1.913427        -1.372144         1.328853
 C         2.822782        -0.446296         1.992509
 O         4.104096        -0.664550         2.413044
 H         3.759343         2.473729         1.378324
 H         3.668802         2.129440        -0.296889
 H         2.246621         2.853490         0.500835
 H         1.444059         1.395813         3.386458
 H        -0.657221        -0.999532        -0.188036
 H        -0.575384         0.679649        -0.295513
 H         0.666889        -0.200115        -1.235693
 H         1.389470        -2.116529         1.899352
 H         2.432103        -1.816976         0.405126
 H         4.436963        -1.095948         1.637329
