19
Iteration:   354charge 0 multiplicity 1
 C         2.883054         1.888829         0.361156
 C         2.320541         0.800415         1.187911
 C         1.772344         0.560848         2.605266
 O         0.424947         0.093847         2.085612
 C         1.088008        -0.098577         0.791028
 C         0.009954         0.249283        -0.203897
 C         2.142309        -1.378428         1.154972
 C         2.827807        -0.346589         1.998501
 O         4.058426        -0.588262         2.749804
 H         3.845449         2.304870         0.737917
 H         3.066430         1.486332        -0.614268
 H         2.125433         2.795463         0.276767
 H         1.906960         1.031829         3.537223
 H        -0.821608        -0.394031        -0.034311
 H        -0.182487         1.336861        -0.090677
 H         0.322791         0.020866        -1.232466
 H         1.636589        -2.202126         1.697672
 H         2.709344        -1.679949         0.322444
 H         4.496329        -0.983471         2.012112
