19
Iteration:  4851charge 0 multiplicity 1
 C         2.994643         1.842735         0.189758
 C         2.323016         0.743678         1.031890
 C         1.916452         0.816797         2.452200
 O         0.496874         0.442332         2.125236
 C         1.095451        -0.145775         0.881894
 C         0.064904        -0.245782        -0.287401
 C         1.810327        -1.362185         1.486089
 C         2.796779        -0.389542         2.112039
 O         4.051696        -0.585306         2.660678
 H         3.993800         1.599051        -0.046945
 H         2.506458         2.016426        -0.755048
 H         3.031123         2.896614         0.622648
 H         2.229255         1.506803         3.248432
 H        -0.533929        -1.067009        -0.236293
 H        -0.579476         0.632762        -0.368704
 H         0.607630        -0.328076        -1.175029
 H         1.097735        -1.849491         2.209437
 H         2.312517        -1.916053         0.633340
 H         3.910972        -0.397565         3.605556
