19
Iteration:  1956charge 0 multiplicity 1
 C         2.945004         1.919913         0.227734
 C         2.350821         0.801253         1.073495
 C         1.875359         0.623254         2.523630
 O         0.464059         0.368544         2.216321
 C         1.004518        -0.065506         0.922613
 C         0.193773        -0.177957        -0.314254
 C         1.850297        -1.354781         1.360890
 C         2.849491        -0.468633         2.023793
 O         4.028966        -0.541848         2.636269
 H         3.909325         2.320764         0.598927
 H         3.353596         1.354813        -0.767111
 H         2.288278         2.737958        -0.038958
 H         2.081329         1.421871         3.405491
 H        -0.480455        -1.071663        -0.315531
 H        -0.483814         0.647649        -0.270290
 H         0.819781        -0.034387        -1.231144
 H         1.197073        -2.057806         1.910046
 H         2.206661        -1.615773         0.386887
 H         3.759382        -0.338445         3.579435
