19
Iteration:  1100charge 0 multiplicity 1
 C         2.935303         1.928681         0.384439
 C         2.279929         0.879728         1.248747
 C         1.727511         0.655676         2.620021
 O         0.439373         0.142979         2.208765
 C         1.077743        -0.147347         0.871121
 C         0.182247         0.025151        -0.289143
 C         1.995872        -1.383526         1.149223
 C         2.863793        -0.316648         1.985596
 O         3.987154        -0.546700         2.592466
 H         3.815879         2.305077         0.980782
 H         3.393319         1.345648        -0.506318
 H         2.375566         2.794016        -0.077955
 H         1.754946         1.256456         3.564268
 H        -0.469282        -0.867770        -0.413466
 H        -0.382619         0.939328        -0.328163
 H         0.776008        -0.020688        -1.162675
 H         1.410560        -2.037863         1.739034
 H         2.693331        -1.768114         0.326225
 H         4.420805        -1.263132         2.138771
