19
Iteration:  2155charge 0 multiplicity 1
 C         2.866035         1.900851         0.217503
 C         2.307582         0.820023         1.129324
 C         1.863140         0.736249         2.526698
 O         0.452015         0.460474         2.199927
 C         1.103273        -0.146978         0.918593
 C         0.259887        -0.196264        -0.327771
 C         1.870181        -1.346053         1.406227
 C         2.721023        -0.375827         2.064728
 O         4.071811        -0.691517         2.581055
 H         3.860425         2.344895         0.635392
 H         3.039031         1.532449        -0.814168
 H         2.092955         2.691133         0.042522
 H         2.144661         1.608075         3.001228
 H        -0.288349        -1.145495        -0.514652
 H        -0.324173         0.767065        -0.360668
 H         0.948661        -0.271509        -1.192312
 H         1.300141        -2.028757         2.108695
 H         2.246281        -2.039908         0.565096
 H         4.073750        -0.540363         3.524330
