19
Iteration:  2737
 C         2.953963         1.789114         0.253972
 C         2.333616         0.795311         1.109944
 C         1.866981         0.729515         2.476787
 O         0.480062         0.345620         2.180363
 C         0.993593        -0.095253         0.921828
 C         0.092487         0.039216        -0.297192
 C         1.880021        -1.410458         1.409784
 C         2.861879        -0.408751         2.020994
 O         4.056933        -0.590329         2.592326
 H         3.934897         1.953316         0.614458
 H         3.063238         1.250660        -0.732461
 H         2.436960         2.657860         0.006347
 H         2.124382         1.423228         3.322708
 H        -0.787722        -0.559826        -0.208337
 H        -0.187064         1.027181        -0.642684
 H         0.619018        -0.422960        -1.088989
 H         1.372118        -2.213361         2.140639
 H         2.464762        -1.975377         0.629756
 H         3.946029        -0.562594         3.552601
