19
Iteration:  4088
 C         3.251806         1.625623         0.265220
 C         2.358404         0.781280         1.124741
 C         1.840343         0.821316         2.504775
 O         0.497018         0.482496         2.207706
 C         1.049775        -0.026806         0.993755
 C        -0.035473        -0.115169        -0.153995
 C         1.772839        -1.389534         1.448255
 C         2.731144        -0.326778         2.031988
 O         4.043175        -0.616010         2.296408
 H         4.266148         1.241497         0.290144
 H         3.051346         1.650629        -0.805884
 H         3.157842         2.696455         0.667029
 H         2.054763         1.315550         3.429715
 H        -0.897229        -0.879695         0.069561
 H        -0.553115         0.919527        -0.191607
 H         0.468007        -0.349250        -1.155230
 H         1.142989        -2.183291         1.962698
 H         2.254078        -1.910169         0.555678
 H         4.154277        -0.868816         3.238408
