19
Iteration:   650charge 0 multiplicity 1
 C         3.116774         2.015470         0.506712
 C         2.351372         0.858839         1.190091
 C         1.772960         0.623180         2.553216
 O         0.426559         0.255566         2.201289
 C         1.031656        -0.075209         0.835179
 C         0.078870        -0.195524        -0.298348
 C         1.942495        -1.290038         1.170501
 C         2.788068        -0.355621         1.960720
 O         4.023746        -0.678625         2.592646
 H         3.959529         2.456068         1.107700
 H         3.372360         1.638603        -0.535316
 H         2.377794         2.852440         0.353810
 H         1.678635         1.192405         3.403139
 H        -0.700310        -0.790870         0.137963
 H        -0.522153         0.747114        -0.408308
 H         0.334422        -0.554846        -1.362645
 H         1.370283        -2.147976         1.640415
 H         2.509878        -1.584303         0.284033
 H         4.794732        -0.096394         2.374395
