19
Iteration:  1474
 C         3.028217         1.865195         0.352108
 C         2.434173         0.825058         1.153064
 C         1.802788         0.690532         2.531652
 O         0.423543         0.352206         2.191479
 C         1.019139        -0.108599         0.921343
 C         0.040693        -0.154020        -0.254286
 C         1.976977        -1.411778         1.189407
 C         2.795822        -0.370631         1.967148
 O         4.003400        -0.576390         2.668239
 H         3.864715         2.361572         0.795617
 H         3.511844         1.253798        -0.553952
 H         2.243486         2.530705        -0.131626
 H         1.957606         1.526016         3.347840
 H        -0.925207        -0.478665         0.050187
 H         0.015252         0.886487        -0.648762
 H         0.297565        -0.886033        -1.039356
 H         1.461929        -2.157499         1.852704
 H         2.316859        -1.793368         0.270177
 H         4.615914         0.235917         2.694953
