19
Iteration:  1275
 C         3.067374         1.936467         0.349459
 C         2.277892         0.913833         1.138179
 C         1.785920         0.735451         2.481074
 O         0.472479         0.122405         2.201053
 C         1.026654        -0.219904         0.860405
 C         0.094303        -0.045850        -0.242996
 C         1.957524        -1.362793         1.254001
 C         2.785914        -0.324051         2.009325
 O         3.988671        -0.575418         2.693273
 H         3.798075         2.383196         0.995765
 H         3.454154         1.482948        -0.587471
 H         2.492384         2.745324         0.052647
 H         1.952282         1.408294         3.363104
 H        -0.853595        -0.556700        -0.188435
 H        -0.154759         0.987492        -0.327456
 H         0.706027        -0.330665        -1.083878
 H         1.525653        -2.198098         1.717562
 H         2.439539        -1.767848         0.327371
 H         4.675374        -0.586543         1.950152
