19
Iteration:  2243
 C         3.215759         1.642128         0.282393
 C         2.264407         0.815361         1.156830
 C         1.743676         0.727400         2.549609
 O         0.465413         0.295911         2.212005
 C         1.055443        -0.140347         0.798427
 C         0.053161        -0.167275        -0.216750
 C         1.861581        -1.301293         1.237302
 C         2.749833        -0.266055         2.038213
 O         4.081748        -0.405392         2.579932
 H         3.901780         2.160005         1.028123
 H         3.732508         1.054044        -0.497637
 H         2.748514         2.522757        -0.259675
 H         1.975485         1.289621         3.427476
 H        -0.871549        -0.610057         0.281311
 H        -0.174027         0.946231        -0.397846
 H         0.249141        -0.732031        -1.175444
 H         1.323543        -2.241864         1.628219
 H         2.520711        -1.759599         0.377367
 H         3.880068        -0.663021         3.473528
