19
Iteration:  1639charge 0 multiplicity 1
 C         3.084735         1.843861         0.275824
 C         2.315911         0.774762         1.089501
 C         1.798458         0.786339         2.482313
 O         0.431649         0.299016         2.239020
 C         1.075332        -0.224660         0.847886
 C         0.082190        -0.136491        -0.245384
 C         1.893857        -1.330447         1.330918
 C         2.816380        -0.290646         2.082237
 O         4.047691        -0.524878         2.564464
 H         3.886654         2.179328         0.908251
 H         3.609249         1.409784        -0.596985
 H         2.543233         2.730520        -0.075928
 H         1.977258         1.653490         3.038823
 H        -0.860567        -0.459159         0.273191
 H         0.022007         0.890371        -0.644449
 H         0.264190        -0.855770        -1.032920
 H         1.324397        -2.144769         1.860491
 H         2.287914        -1.820120         0.479709
 H         3.842666        -1.114341         3.286143
