19
Iteration:  1192
 C         2.938993         1.995931         0.495035
 C         2.277353         0.861836         1.153515
 C         1.814366         0.748693         2.522284
 O         0.548274         0.194063         2.187111
 C         1.019197        -0.151869         0.880222
 C         0.146676        -0.116791        -0.393002
 C         1.953129        -1.348691         1.320904
 C         2.778835        -0.333660         1.988924
 O         3.991800        -0.617526         2.598575
 H         3.816538         2.154523         1.128773
 H         3.374818         1.639994        -0.419879
 H         2.248997         2.934447         0.401591
 H         1.929447         1.260511         3.410547
 H        -0.715989        -0.808329        -0.288369
 H        -0.177925         0.941760        -0.641516
 H         0.721440        -0.516011        -1.324062
 H         1.346718        -2.145902         1.915237
 H         2.438344        -1.645539         0.415667
 H         4.598705        -0.982797         1.934576
