19
Iteration:  2100charge 0 multiplicity 1
 C         2.999854         1.889537         0.263033
 C         2.353782         0.791944         1.058793
 C         1.798215         0.766017         2.510266
 O         0.478010         0.340387         2.029076
 C         1.146850        -0.092035         0.857452
 C        -0.007261        -0.136710        -0.202734
 C         1.972541        -1.393096         1.367545
 C         2.758242        -0.371134         2.101792
 O         4.036431        -0.651009         2.663753
 H         3.771328         2.377125         0.964979
 H         3.534667         1.533392        -0.659648
 H         2.385511         2.783909         0.052132
 H         2.029946         1.350427         3.326696
 H        -0.712876        -0.697604         0.419596
 H        -0.589257         0.714192        -0.596813
 H         0.255530        -0.735735        -1.073101
 H         1.383185        -2.165832         1.931683
 H         2.546218        -1.722304         0.441151
 H         4.267500        -0.001827         3.339696
