19
Iteration:  4478
 C         3.182784         1.698109         0.210599
 C         2.412957         0.795944         1.112765
 C         1.935844         0.815094         2.523467
 O         0.521494         0.439679         2.254907
 C         0.988670        -0.048296         0.931751
 C        -0.027200        -0.232267        -0.210892
 C         1.724505        -1.266662         1.350302
 C         2.707694        -0.395453         2.031268
 O         4.032024        -0.608937         2.482137
 H         3.273499         1.499127        -0.843825
 H         2.702803         2.643096         0.318938
 H         4.239007         1.820889         0.583963
 H         2.217146         1.558127         3.280833
 H        -0.557164        -1.128865        -0.044501
 H        -0.680908         0.638642        -0.499438
 H         0.582189        -0.428241        -1.115357
 H         1.308097        -2.040487         1.927860
 H         2.231785        -1.594629         0.469420
 H         4.090513        -0.726565         3.448691
