19
Iteration:  2535charge 0 multiplicity 1
 C         2.916365         1.863762         0.199229
 C         2.328886         0.759139         1.089742
 C         1.857952         0.799298         2.518643
 O         0.496861         0.434775         2.134638
 C         1.112736        -0.103849         0.868278
 C         0.148334        -0.072360        -0.276126
 C         1.868132        -1.442084         1.390346
 C         2.802963        -0.340443         2.094638
 O         4.071523        -0.675410         2.633158
 H         3.895676         2.199036         0.574834
 H         2.916678         1.466878        -0.789045
 H         2.137224         2.628743         0.274094
 H         1.877422         1.474879         3.373335
 H        -0.550680        -0.827622         0.071292
 H        -0.463042         0.835852        -0.385298
 H         0.566731        -0.378107        -1.202220
 H         1.211464        -1.934052         2.211497
 H         2.387259        -1.867238         0.424981
 H         3.880122        -1.380053         3.253673
