19
Iteration:  2492charge 0 multiplicity 1
 C         3.207650         1.784723         0.345350
 C         2.302994         0.808131         1.089824
 C         1.812665         0.812889         2.474014
 O         0.422998         0.380991         2.173258
 C         1.035201        -0.065010         0.908108
 C         0.025100        -0.259325        -0.222683
 C         1.793911        -1.380077         1.344854
 C         2.778012        -0.378575         1.970336
 O         4.084190        -0.495016         2.529071
 H         4.040494         1.930731         1.232352
 H         3.853803         1.433466        -0.569479
 H         2.906363         2.854086         0.363879
 H         2.193370         1.303791         3.378023
 H        -0.709433        -0.999515         0.002268
 H        -0.647703         0.597870        -0.366279
 H         0.486493        -0.413520        -1.164298
 H         1.204199        -2.190367         1.979418
 H         2.336432        -1.686313         0.311143
 H         4.117536        -0.944981         3.380791
