19
Iteration:   462
 C         2.973688         1.924080         0.613500
 C         2.259073         0.780570         1.159172
 C         1.896628         0.618217         2.554269
 O         0.416947         0.346034         2.146644
 C         1.095028        -0.111616         0.817770
 C         0.089534        -0.066487        -0.327157
 C         1.893447        -1.393008         1.218566
 C         2.771319        -0.496544         2.038273
 O         4.103784        -0.481672         2.524402
 H         3.619436         2.332060         1.387225
 H         3.502269         1.776902        -0.325835
 H         2.383748         2.788430         0.375942
 H         2.018405         1.295317         3.463005
 H        -0.660415        -0.818352        -0.185805
 H        -0.482440         0.891016        -0.356541
 H         0.637184        -0.153311        -1.281240
 H         1.270342        -2.207696         1.725465
 H         2.454540        -1.884645         0.436559
 H         4.547243        -0.986532         1.844337
