19
Iteration:  1423
 C         3.036843         1.863584         0.366088
 C         2.386247         0.839353         1.127759
 C         1.699952         0.786280         2.528008
 O         0.424285         0.301244         2.143586
 C         1.053788        -0.152105         0.891443
 C         0.047069        -0.105381        -0.261552
 C         1.988435        -1.382020         1.281377
 C         2.773955        -0.378759         2.023398
 O         4.102362        -0.526682         2.577729
 H         4.008727         2.176811         0.802208
 H         3.330551         1.494974        -0.553686
 H         2.255948         2.694842         0.309125
 H         1.946940         1.352494         3.462955
 H        -0.931213        -0.481375         0.167194
 H        -0.092063         0.844476        -0.796595
 H         0.255205        -0.899801        -0.977360
 H         1.568888        -2.276301         1.840560
 H         2.513443        -1.671204         0.329190
 H         4.249752        -1.347067         3.106152
