19
Iteration:  3427
 C         2.966623         1.839227         0.163736
 C         2.485059         0.828476         1.093288
 C         1.821129         0.827107         2.447129
 O         0.484295         0.443877         2.163777
 C         1.069672        -0.144174         0.887541
 C         0.133414        -0.211085        -0.211472
 C         1.907039        -1.338320         1.462917
 C         2.752351        -0.275183         2.058571
 O         3.985915        -0.754841         2.581661
 H         3.391882         2.775392         0.731820
 H         3.740284         1.327397        -0.407516
 H         2.064683         2.185008        -0.402867
 H         2.010197         1.511014         3.333597
 H        -0.544935        -1.065415         0.031561
 H        -0.519912         0.769117        -0.271155
 H         0.579860        -0.302317        -1.266172
 H         1.229013        -2.015903         2.005472
 H         2.409275        -1.964897         0.661973
 H         3.866225        -0.630491         3.543221
