19
Iteration:  4810
 C         2.957204         1.836364         0.151355
 C         2.352158         0.812967         1.046909
 C         1.888428         0.855199         2.458331
 O         0.520109         0.529128         2.146636
 C         1.034771        -0.060594         0.903810
 C         0.141573        -0.354891        -0.197860
 C         1.855149        -1.340780         1.390050
 C         2.806255        -0.367398         2.104096
 O         3.989723        -0.699097         2.641661
 H         3.940556         1.823170         0.636813
 H         2.952389         1.630227        -0.894041
 H         2.517792         2.829383         0.365679
 H         2.101478         1.547260         3.277411
 H        -0.635061        -1.164057         0.075241
 H        -0.389594         0.556981        -0.457714
 H         0.624168        -0.634840        -1.201627
 H         1.302364        -2.103288         1.882813
 H         2.375556        -1.823274         0.522298
 H         3.996604        -0.580746         3.609210
