19
Iteration:  4330
 C         3.357909         1.600642         0.277694
 C         2.349282         0.826725         1.141150
 C         1.796158         0.772390         2.516277
 O         0.483335         0.489775         2.220491
 C         0.987853        -0.130461         0.964801
 C        -0.021234        -0.077720        -0.067278
 C         1.823021        -1.393838         1.300048
 C         2.698577        -0.339591         2.010008
 O         4.006890        -0.545651         2.334139
 H         4.315413         0.994222         0.291162
 H         3.039476         1.585253        -0.821795
 H         3.482911         2.752750         0.345620
 H         2.148568         1.439064         3.315004
 H        -0.823833        -0.918998         0.307098
 H        -0.700569         0.859694         0.089001
 H         0.347250        -0.366711        -1.085254
 H         1.494807        -2.171852         1.968086
 H         2.418090        -1.691535         0.426673
 H         3.899319        -0.749783         3.281472
