19
Iteration:  1598charge 0 multiplicity 1
 C         3.061493         1.840387         0.241161
 C         2.360154         0.792512         1.117506
 C         1.749643         0.656962         2.556419
 O         0.416077         0.390202         2.158473
 C         1.084334        -0.077899         0.931313
 C         0.069234        -0.162414        -0.233929
 C         1.889025        -1.391928         1.267550
 C         2.831543        -0.337269         2.009501
 O         4.044913        -0.589943         2.661075
 H         4.104263         2.071466         0.696883
 H         3.192957         1.293296        -0.643606
 H         2.402575         2.742966        -0.195354
 H         2.030905         1.392539         3.199180
 H        -0.768953        -0.901134        -0.090010
 H        -0.296728         0.833421        -0.269128
 H         0.375766        -0.475042        -1.219472
 H         1.389614        -2.099716         1.943236
 H         2.513377        -1.774262         0.423718
 H         4.499903         0.190978         3.083375
