19
Iteration:  3445charge 0 multiplicity 1
 C         3.042007         1.754304         0.214594
 C         2.301540         0.754503         1.045767
 C         1.774852         0.901488         2.481405
 O         0.457535         0.392172         2.117389
 C         1.046213        -0.122837         0.887238
 C         0.037253        -0.144474        -0.239545
 C         1.887150        -1.384087         1.432606
 C         2.837525        -0.334951         2.114352
 O         4.127403        -0.653777         2.603803
 H         3.541508         2.545458         0.809164
 H         3.846922         1.374747        -0.428259
 H         2.414763         2.282694        -0.426746
 H         1.805218         1.663924         3.216708
 H        -0.795670        -0.770602        -0.010797
 H        -0.293730         0.973730        -0.310634
 H         0.491997        -0.362218        -1.177293
 H         1.396563        -1.967449         2.182983
 H         2.415370        -1.783905         0.538945
 H         4.069968        -0.934315         3.537180
