19
Iteration:   298charge 0 multiplicity 1
 C         2.893151         1.892859         0.470589
 C         2.267387         0.804317         1.333944
 C         1.762096         0.523283         2.671518
 O         0.409404         0.259751         2.262596
 C         1.054633        -0.055843         0.836986
 C         0.210663         0.063786        -0.382659
 C         1.969845        -1.396314         1.095637
 C         2.837178        -0.470985         1.901087
 O         4.095344        -0.496667         2.590499
 H         3.711034         2.323179         1.024204
 H         3.226662         1.428464        -0.471382
 H         2.018770         2.640123         0.243872
 H         1.959154         1.013950         3.640816
 H        -0.589814        -0.715271        -0.417590
 H        -0.366251         0.981829        -0.337748
 H         0.910014         0.048411        -1.157565
 H         1.514704        -2.313567         1.502204
 H         2.257915        -1.644302         0.109686
 H         4.708369        -0.383823         1.811995
