19
Iteration:  4294
 C         3.277481         1.686769         0.356793
 C         2.390766         0.698904         1.038891
 C         1.897806         0.781548         2.450483
 O         0.563402         0.459226         2.247434
 C         1.017471        -0.046241         0.948655
 C        -0.144417        -0.110545        -0.179771
 C         1.624784        -1.350138         1.389320
 C         2.737562        -0.381603         2.008884
 O         4.130300        -0.519251         2.424807
 H         4.298815         1.739612         0.711419
 H         3.218871         1.324101        -0.622161
 H         2.867313         2.807510         0.451858
 H         2.282765         1.565961         3.080432
 H        -0.615390        -1.076541         0.100722
 H        -0.861821         0.746985        -0.275078
 H         0.267616        -0.230506        -1.182896
 H         0.907429        -2.078704         1.949715
 H         2.100207        -1.945886         0.573047
 H         4.191193        -1.299393         3.005589
