19
Iteration:  2705charge 0 multiplicity 1
 C         3.207577         1.803857         0.353245
 C         2.349776         0.817448         1.136149
 C         1.803755         0.837089         2.451805
 O         0.435797         0.348595         2.178494
 C         1.062832        -0.113287         0.901003
 C         0.053988        -0.175647        -0.158175
 C         1.819942        -1.369327         1.346298
 C         2.739293        -0.331810         2.036370
 O         4.021517        -0.580789         2.423332
 H         4.114662         1.902787         0.866042
 H         3.461023         1.198541        -0.570682
 H         2.785801         2.801782         0.255644
 H         1.919921         1.541607         3.303059
 H        -0.559553        -1.051539         0.080592
 H        -0.503910         0.771318        -0.312670
 H         0.529358        -0.405147        -1.095447
 H         1.323634        -2.233147         1.789363
 H         2.461121        -1.758946         0.581158
 H         4.068473        -0.740868         3.376549
