19
Iteration:  2603
 C         3.004021         1.769245         0.170757
 C         2.377757         0.722866         1.149400
 C         1.780188         0.753585         2.553052
 O         0.472437         0.360182         2.165928
 C         0.992052        -0.119443         0.940039
 C         0.121891        -0.010776        -0.272165
 C         1.812445        -1.393476         1.291996
 C         2.791408        -0.358174         2.059823
 O         4.131541        -0.612134         2.612188
 H         3.872592         2.365189         0.629477
 H         3.387523         1.370666        -0.772142
 H         2.270412         2.381252        -0.185247
 H         1.941465         1.274952         3.452939
 H        -0.751881        -0.438879         0.044071
 H        -0.074366         1.019372        -0.374271
 H         0.548072        -0.463516        -1.149216
 H         1.331940        -2.134975         1.970857
 H         2.450775        -1.558128         0.409190
 H         4.171544        -0.230721         3.520559
