19
Iteration:  2718
 C         3.176912         1.788716         0.271710
 C         2.309029         0.772511         1.016317
 C         1.747196         0.810642         2.557812
 O         0.455406         0.352174         2.246557
 C         1.051930        -0.187387         0.888961
 C         0.068693        -0.119122        -0.263496
 C         1.864038        -1.359433         1.377443
 C         2.767376        -0.297642         2.067230
 O         4.083414        -0.629371         2.506808
 H         4.086929         2.014751         0.780444
 H         3.402204         1.706497        -0.856924
 H         2.513587         2.761997         0.164840
 H         1.989294         1.429577         3.369291
 H        -0.939216        -0.683851        -0.169176
 H        -0.293669         0.961754        -0.243559
 H         0.558185        -0.347369        -1.229923
 H         1.256114        -2.024375         1.880056
 H         2.267228        -1.715468         0.476327
 H         4.085594        -0.647319         3.492732
