19
Iteration:  3299
 C         3.304334         1.585496         0.246788
 C         2.296905         0.741972         1.165823
 C         1.729456         0.733916         2.575188
 O         0.423781         0.390844         2.272344
 C         0.955533        -0.106734         0.909558
 C         0.140118        -0.153375        -0.222413
 C         1.927704        -1.359781         1.238735
 C         2.660645        -0.325069         2.025927
 O         4.028998        -0.295537         2.502888
 H         4.225574         1.388823         0.622277
 H         3.245923         1.136555        -0.775320
 H         2.981900         2.681595        -0.046869
 H         1.828697         1.384692         3.485527
 H        -0.939219        -0.451481         0.109230
 H         0.066557         0.832149        -0.738767
 H         0.562939        -1.078030        -0.798220
 H         1.313017        -2.298872         1.654596
 H         2.549948        -1.612183         0.317109
 H         4.104918        -0.962142         3.205895
