19
Iteration:   338
 C         2.889367         1.913494         0.330041
 C         2.246606         0.880964         1.200402
 C         1.660867         0.620505         2.515613
 O         0.522555        -0.052147         2.236582
 C         1.154096        -0.158241         0.847048
 C         0.154525         0.318787        -0.255515
 C         2.008009        -1.418327         1.191590
 C         2.840643        -0.390323         2.008230
 O         3.999660        -0.558224         2.658021
 H         3.833060         2.286820         0.711927
 H         3.216171         1.556779        -0.715819
 H         2.371822         2.762507         0.144178
 H         1.741755         1.343270         3.418543
 H        -0.847960        -0.227262        -0.092996
 H        -0.090426         1.359567        -0.070404
 H         0.332336         0.233083        -1.339720
 H         1.506684        -2.235364         1.737979
 H         2.694408        -1.700242         0.297444
 H         4.802114        -0.907163         2.267294
