19
Iteration:   926
 C         2.930030         1.941557         0.418841
 C         2.297181         0.819488         1.208449
 C         1.730519         0.598340         2.673620
 O         0.440561         0.127174         2.171611
 C         1.040766        -0.110130         0.893832
 C         0.199594         0.086058        -0.363590
 C         2.044834        -1.388621         1.248919
 C         2.775150        -0.348359         1.996592
 O         4.034542        -0.608294         2.525127
 H         3.668232         2.506333         1.012156
 H         3.387342         1.659813        -0.500914
 H         2.073935         2.679831         0.237454
 H         1.761286         0.820186         3.659863
 H        -0.522260        -0.705980        -0.849583
 H        -0.492870         0.950155        -0.196765
 H         0.873519         0.292227        -1.188894
 H         1.592509        -2.333103         1.618377
 H         2.639943        -1.688513         0.285197
 H         4.563977         0.247540         2.571327
