19
Iteration:  2663
 C         3.386266         1.765998         0.415001
 C         2.374862         0.860194         1.142191
 C         1.765630         0.780813         2.481590
 O         0.430779         0.421600         2.182206
 C         0.882108        -0.099559         0.931068
 C        -0.040285        -0.272804        -0.193194
 C         1.814688        -1.359926         1.224287
 C         2.728579        -0.423691         2.027117
 O         4.112618        -0.434532         2.493374
 H         4.240097         2.075257         1.004072
 H         3.786826         1.126270        -0.483529
 H         2.789510         2.722088        -0.055220
 H         2.136853         1.400681         3.306405
 H        -0.687947        -1.218571         0.090651
 H        -0.690305         0.664392        -0.329985
 H         0.323149        -0.482088        -1.212265
 H         1.363813        -2.111820         1.808189
 H         2.228528        -1.835260         0.323125
 H         4.236838        -1.205627         3.111780
