19
Iteration:   714charge 0 multiplicity 1
 C         2.909606         1.856550         0.415149
 C         2.343845         0.824994         1.278692
 C         1.750541         0.532438         2.576637
 O         0.441135         0.215961         2.068250
 C         1.097051        -0.075331         0.867173
 C         0.086448         0.096175        -0.297348
 C         1.975119        -1.346561         1.148238
 C         2.790121        -0.446678         2.092959
 O         4.119936        -0.429497         2.616089
 H         3.837669         2.400890         0.617486
 H         3.302218         1.257239        -0.540897
 H         2.126684         2.439294         0.097965
 H         1.632616         0.749482         3.574177
 H        -0.696953        -0.562588        -0.094526
 H        -0.378162         1.046996         0.008954
 H         0.559560        -0.083988        -1.298375
 H         1.482310        -2.293205         1.515298
 H         2.508875        -1.576952         0.248470
 H         4.584830        -1.328333         2.658848
