19
Iteration:   896
 C         2.874221         1.847402         0.515182
 C         2.269761         0.816221         1.257883
 C         1.695687         0.646365         2.637596
 O         0.368582         0.158477         2.099671
 C         1.129801        -0.032183         0.888021
 C         0.212661         0.058114        -0.292660
 C         1.998537        -1.370477         1.120300
 C         2.841677        -0.432678         2.041667
 O         4.123347        -0.511293         2.577418
 H         3.719324         2.266522         1.046403
 H         3.232396         1.526635        -0.471612
 H         1.998304         2.558582         0.150381
 H         1.715708         1.078973         3.622002
 H        -0.534047        -0.771038        -0.259844
 H        -0.304322         1.046905        -0.233685
 H         0.669129         0.069086        -1.298910
 H         1.514238        -2.365261         1.312817
 H         2.545878        -1.516325         0.182122
 H         4.671026        -0.720874         1.822202
