19
Iteration:  3689
 C         3.202832         1.547952         0.251082
 C         2.309398         0.728565         1.134113
 C         1.773709         0.768848         2.492097
 O         0.449431         0.384094         2.206973
 C         1.031759        -0.120020         0.918237
 C        -0.061371        -0.021071        -0.246465
 C         1.871555        -1.451424         1.362144
 C         2.743178        -0.366595         2.029040
 O         4.121003        -0.310291         2.553679
 H         3.554875         2.660626         0.487416
 H         4.101866         0.864013         0.168816
 H         2.872833         1.667797        -0.784187
 H         2.136070         1.456148         3.244284
 H        -0.992983        -0.310222         0.101483
 H        -0.071909         0.982763        -0.520838
 H         0.330403        -0.586717        -1.135563
 H         1.267066        -2.298336         1.859520
 H         2.407473        -1.925859         0.429360
 H         4.178538        -0.788260         3.408943
