19
Iteration:  2947
 C         2.949904         1.642513         0.149416
 C         2.349044         0.780640         1.157370
 C         1.875549         0.733299         2.549572
 O         0.524725         0.422517         2.232636
 C         1.061169        -0.121785         0.969757
 C         0.202948        -0.003463        -0.298741
 C         1.896483        -1.375648         1.245815
 C         2.749560        -0.387655         2.061060
 O         3.977771        -0.524967         2.608057
 H         3.895427         2.155512         0.510194
 H         2.982645         1.368191        -1.028785
 H         2.138676         2.486410         0.048140
 H         2.006137         1.247544         3.593240
 H        -0.728586        -0.500055         0.025578
 H        -0.060589         0.965504        -0.689849
 H         0.587644        -0.678490        -1.051770
 H         1.286930        -2.169043         1.838271
 H         2.444047        -1.823374         0.441398
 H         3.765062        -0.697025         3.565392
