19
Iteration:  4064charge 0 multiplicity 1
 C         3.154549         1.682238         0.166972
 C         2.355758         0.722467         1.121815
 C         1.834031         0.718167         2.463117
 O         0.488458         0.452399         2.219325
 C         0.971273        -0.092510         0.958515
 C        -0.044648         0.033833        -0.190933
 C         1.744477        -1.374594         1.434081
 C         2.823788        -0.380033         1.997921
 O         4.181308        -0.594456         2.515953
 H         4.087460         1.250997        -0.120371
 H         2.663653         1.741902        -0.789560
 H         3.264878         2.780054         0.538702
 H         2.200893         1.499600         3.136181
 H        -1.067200        -0.472785         0.122009
 H        -0.292526         1.130261        -0.225575
 H         0.327581        -0.391099        -1.241408
 H         1.255304        -2.091878         2.082908
 H         2.202724        -1.939376         0.658181
 H         3.944045        -1.020313         3.366985
