19
Iteration:  1775charge 0 multiplicity 1
 C         2.989018         1.752573         0.230000
 C         2.312461         0.761331         1.121508
 C         1.767224         0.717105         2.523874
 O         0.519091         0.440397         2.199927
 C         1.045117        -0.070301         0.888574
 C         0.100729        -0.168891        -0.276729
 C         1.963319        -1.377873         1.276259
 C         2.794470        -0.348414         1.996981
 O         4.005321        -0.552107         2.781048
 H         3.902171         2.233196         0.678524
 H         3.233147         1.357838        -0.745140
 H         2.282164         2.660567         0.201531
 H         2.060087         1.162506         3.517391
 H        -0.489146        -1.074386        -0.143009
 H        -0.679088         0.657505        -0.187126
 H         0.484120         0.079917        -1.297269
 H         1.537418        -2.344745         1.626594
 H         2.431152        -1.748608         0.271986
 H         4.545880        -0.453381         1.980772
