19
Iteration:  2503
 C         3.196118         1.844329         0.342692
 C         2.359061         0.763445         1.056590
 C         1.800378         0.716014         2.497957
 O         0.442789         0.463790         2.144079
 C         0.995866        -0.099758         0.914477
 C         0.031582        -0.202335        -0.212079
 C         1.858837        -1.394678         1.340652
 C         2.749004        -0.384110         2.064769
 O         4.089666        -0.504934         2.543163
 H         4.179531         2.107909         0.918789
 H         3.463206         1.665157        -0.770777
 H         2.527692         2.729658         0.193494
 H         1.996962         1.469572         3.263972
 H        -0.485514        -1.100857         0.033917
 H        -0.585670         0.687859        -0.333616
 H         0.556943        -0.461143        -1.100543
 H         1.183263        -2.219689         1.860850
 H         2.175751        -1.988905         0.362330
 H         3.947522        -1.209691         3.223803
