19
Iteration:  3884charge 0 multiplicity 1
 C         3.237504         1.542830         0.191328
 C         2.329068         0.798983         1.136173
 C         1.860249         0.798094         2.549762
 O         0.439832         0.407329         2.229535
 C         0.956791        -0.059297         0.954865
 C        -0.078315        -0.112760        -0.223382
 C         1.887197        -1.296867         1.291454
 C         2.786042        -0.282394         2.061576
 O         4.080701        -0.585140         2.485896
 H         2.937424         1.822634        -0.859903
 H         3.534959         2.508313         0.637280
 H         4.138387         1.022477         0.322252
 H         1.914646         1.700193         3.233323
 H        -1.053992        -0.641786         0.071496
 H        -0.529321         0.994708        -0.258984
 H         0.281761        -0.619459        -1.209214
 H         1.580097        -2.125499         1.862236
 H         2.432680        -1.844456         0.461190
 H         4.058990        -0.703842         3.460822
