19
Iteration:  3484
 C         3.225835         1.568433         0.247372
 C         2.353145         0.720312         1.100461
 C         1.806425         0.697832         2.580551
 O         0.483691         0.350827         2.176599
 C         1.027329        -0.049187         0.968636
 C         0.120917        -0.104069        -0.238287
 C         1.847176        -1.415019         1.326262
 C         2.678592        -0.358637         2.022975
 O         4.005637        -0.238524         2.503340
 H         4.020928         1.816304         0.898821
 H         3.604154         1.091483        -0.706355
 H         2.570772         2.533273        -0.151931
 H         1.883103         1.272289         3.510730
 H        -0.971369        -0.388803         0.134400
 H        -0.083688         0.900589        -0.597731
 H         0.358473        -0.882310        -1.065158
 H         1.229516        -2.143346         1.985802
 H         2.146068        -1.965591         0.435739
 H         4.069178        -0.806190         3.289115
