19
Iteration:  3215
 C         2.952647         1.800525         0.242693
 C         2.380981         0.766801         1.014710
 C         1.927210         0.765782         2.460300
 O         0.520762         0.473185         2.184129
 C         1.013719        -0.053607         0.887457
 C         0.048445        -0.187755        -0.294767
 C         1.871359        -1.405841         1.410091
 C         2.807276        -0.447084         1.998095
 O         4.034797        -0.571542         2.678722
 H         3.422661         2.537269         0.983029
 H         3.855046         1.507929        -0.336484
 H         2.340445         2.525694        -0.251052
 H         2.265201         1.448638         3.337734
 H        -0.473476        -1.087155        -0.038487
 H        -0.631789         0.700401        -0.424355
 H         0.542405        -0.185566        -1.217492
 H         1.216735        -1.944371         2.028866
 H         2.249403        -2.026414         0.638344
 H         3.677737        -0.839704         3.558308
