19
Iteration:   717charge 0 multiplicity 1
 C         2.895971         1.837175         0.412689
 C         2.312582         0.824129         1.314399
 C         1.774423         0.525053         2.629029
 O         0.429076         0.241791         2.068497
 C         1.141418        -0.095983         0.851668
 C         0.110865         0.095492        -0.321716
 C         1.974644        -1.368914         1.143593
 C         2.774642        -0.399852         2.076040
 O         4.122685        -0.452915         2.587363
 H         3.846256         2.430467         0.626832
 H         3.271825         1.234333        -0.468994
 H         1.974455         2.536299         0.031195
 H         1.649004         0.919849         3.704861
 H        -0.759420        -0.622272        -0.108592
 H        -0.350853         1.024988         0.035328
 H         0.590053        -0.067904        -1.335400
 H         1.477437        -2.278732         1.558529
 H         2.458460        -1.602682         0.131687
 H         4.571098        -1.272029         2.775621
