19
Iteration:  2752
 C         2.880173         1.748720         0.141954
 C         2.356794         0.729957         1.141229
 C         1.867120         0.717505         2.568832
 O         0.507756         0.399571         2.195354
 C         1.118061        -0.108840         0.905048
 C         0.209274         0.021897        -0.257596
 C         1.851331        -1.446431         1.328959
 C         2.749106        -0.405506         1.966956
 O         4.057186        -0.543969         2.648535
 H         3.810118         2.292804         0.439367
 H         3.028756         1.277723        -0.874040
 H         2.045458         2.579621         0.279437
 H         2.069324         1.266162         3.436235
 H        -0.805884        -0.444968         0.063492
 H         0.130949         1.146988        -0.354357
 H         0.564599        -0.378661        -1.264528
 H         1.244840        -2.017415         1.925643
 H         2.046209        -1.939205         0.402220
 H         3.820940        -0.635722         3.610765
