19
Iteration:  1010charge 0 multiplicity 1
 C         2.998000         2.112861         0.565669
 C         2.348420         0.934580         1.221627
 C         1.783922         0.689499         2.529670
 O         0.422698         0.179670         2.125039
 C         1.068178        -0.154172         0.821443
 C         0.077914        -0.141291        -0.325878
 C         1.939456        -1.372035         1.153612
 C         2.805012        -0.395674         2.001658
 O         4.066189        -0.655957         2.633141
 H         3.888126         2.476763         1.151739
 H         3.310773         1.886620        -0.529377
 H         2.266310         2.877901         0.487139
 H         1.759538         1.172172         3.505017
 H        -0.631500        -0.692368         0.231832
 H        -0.334387         0.807577        -0.607281
 H         0.324184        -0.731270        -1.180574
 H         1.385369        -2.131162         1.635601
 H         2.535019        -1.609876         0.294016
 H         4.789694        -0.603480         1.982034
