19
Iteration:  2512
 C         3.107753         1.866838         0.337757
 C         2.438705         0.719988         1.097495
 C         1.831197         0.741632         2.509336
 O         0.475006         0.490901         2.126749
 C         1.024383        -0.146409         0.878217
 C         0.045867        -0.206010        -0.209319
 C         1.819864        -1.379874         1.320574
 C         2.766373        -0.378262         2.030305
 O         4.020996        -0.538485         2.556546
 H         4.061347         2.148801         0.707151
 H         3.221422         1.400991        -0.579919
 H         2.390896         2.730866         0.285940
 H         1.853593         1.453990         3.356173
 H        -0.720676        -0.994327        -0.105125
 H        -0.535436         0.725034        -0.293437
 H         0.587323        -0.322457        -1.113720
 H         1.397829        -2.008740         2.190596
 H         2.573337        -1.774097         0.569861
 H         4.192785        -1.280020         3.182256
