19
Iteration:  4138
 C         3.293473         1.661859         0.312062
 C         2.331616         0.813763         1.101381
 C         1.902514         0.772510         2.518386
 O         0.438415         0.515761         2.236459
 C         0.969541        -0.045817         0.999689
 C        -0.081190        -0.105165        -0.131845
 C         1.732714        -1.355720         1.347550
 C         2.798646        -0.394208         1.957199
 O         4.106295        -0.608897         2.356204
 H         4.238856         1.908810         0.820500
 H         3.651487         0.989188        -0.484321
 H         2.822040         2.526477        -0.195641
 H         2.037152         1.492622         3.374899
 H        -0.736906        -0.905083         0.023492
 H        -0.685440         0.711225        -0.296292
 H         0.422055        -0.367616        -1.101683
 H         1.327239        -2.039097         2.192247
 H         1.977588        -1.946707         0.454741
 H         4.229834        -1.107680         3.181524
