19
Iteration:  4945
 C         3.194073         1.621502         0.140501
 C         2.291740         0.786516         1.097360
 C         1.703455         0.804794         2.591016
 O         0.458547         0.304214         2.204734
 C         1.072618        -0.180129         0.863264
 C         0.129714        -0.182859        -0.266116
 C         1.859466        -1.361780         1.388861
 C         2.711882        -0.274267         2.133681
 O         4.027740        -0.351996         2.553708
 H         3.058989         1.230030        -0.903430
 H         3.168548         2.753371         0.197369
 H         4.229807         1.360281         0.304135
 H         1.836621         1.601974         3.319262
 H        -0.878839        -0.705258        -0.002338
 H         0.052915         0.930402        -0.623590
 H         0.678499        -0.812371        -1.039353
 H         1.213047        -2.056761         1.912968
 H         2.416350        -1.653758         0.545485
 H         4.249030        -0.515551         3.484686
