19
Iteration:  3186
 C         2.868780         1.864885         0.081075
 C         2.471611         0.801788         1.142018
 C         1.844825         0.825793         2.493683
 O         0.500752         0.462220         2.132491
 C         1.081182        -0.110535         0.942191
 C         0.180771        -0.189937        -0.224003
 C         1.869095        -1.350462         1.389046
 C         2.764211        -0.408451         2.113100
 O         4.032794        -0.724398         2.621400
 H         3.551412         2.623076         0.662311
 H         3.374129         1.568401        -0.803493
 H         1.957245         2.415193        -0.232970
 H         1.967845         1.513577         3.409317
 H        -0.608431        -0.970843        -0.241860
 H        -0.388141         0.731247        -0.266106
 H         0.829812        -0.142837        -1.148344
 H         1.068572        -1.959133         1.956616
 H         2.412589        -1.915699         0.524126
 H         3.709329        -0.940681         3.544364
