19
Iteration:  2225charge 0 multiplicity 1
 C         3.211297         1.672007         0.270492
 C         2.322635         0.795605         1.134061
 C         1.792596         0.783864         2.487203
 O         0.466987         0.206972         2.227029
 C         1.002448        -0.074235         0.989409
 C         0.046437        -0.061694        -0.273627
 C         1.929958        -1.390928         1.287652
 C         2.771272        -0.327716         2.019723
 O         3.959645        -0.368684         2.584476
 H         3.960775         2.213194         0.770172
 H         3.606661         1.143472        -0.603461
 H         2.568331         2.482366        -0.310300
 H         1.985087         1.551192         3.334292
 H        -0.747969        -0.739170        -0.195862
 H        -0.221811         0.844046        -0.705356
 H         0.610339        -0.624719        -0.999238
 H         1.491635        -2.190191         1.862541
 H         2.274349        -1.829282         0.427900
 H         4.089711        -1.092245         3.173218
