19
Iteration:  2501
 C         3.212925         1.831651         0.335053
 C         2.343934         0.773143         1.057891
 C         1.794178         0.723968         2.492603
 O         0.437253         0.451066         2.145856
 C         1.002573        -0.087590         0.923012
 C         0.030822        -0.206835        -0.217052
 C         1.857472        -1.398620         1.343979
 C         2.751313        -0.385232         2.058607
 O         4.096847        -0.502399         2.542072
 H         4.069058         2.081045         0.901818
 H         3.523985         1.695656        -0.662601
 H         2.584944         2.780540         0.228294
 H         2.074714         1.461576         3.279142
 H        -0.508579        -1.119613         0.052819
 H        -0.604605         0.675277        -0.345088
 H         0.537948        -0.461740        -1.107498
 H         1.171782        -2.238923         1.802560
 H         2.118150        -1.958379         0.395824
 H         3.937908        -1.164139         3.226695
