19
Iteration:  1743charge 0 multiplicity 1
 C         3.012158         1.773493         0.209124
 C         2.386155         0.785704         1.145998
 C         1.775100         0.742659         2.541319
 O         0.509732         0.325918         2.137076
 C         1.020278        -0.032757         0.889756
 C         0.097495        -0.116645        -0.248041
 C         1.921917        -1.401636         1.347067
 C         2.748276        -0.350717         2.032388
 O         4.038894        -0.612703         2.659822
 H         3.954118         2.217289         0.603706
 H         3.229818         1.326648        -0.797068
 H         2.246919         2.584958         0.028801
 H         1.920300         1.419481         3.430433
 H        -0.396400        -1.071986        -0.236954
 H        -0.703763         0.657875        -0.087120
 H         0.634360         0.016899        -1.204812
 H         1.335114        -2.105993         1.912520
 H         2.430064        -1.636175         0.399586
 H         4.403609         0.296893         2.904539
