19
Iteration:  2323charge 0 multiplicity 1
 C         2.986025         1.932095         0.276316
 C         2.407544         0.749263         1.084849
 C         1.864850         0.807799         2.504221
 O         0.479817         0.438458         2.237466
 C         1.014419        -0.145569         0.867786
 C         0.154049        -0.269459        -0.338492
 C         1.837017        -1.350258         1.383405
 C         2.844542        -0.336412         1.998896
 O         3.977630        -0.690772         2.608910
 H         3.906565         2.282078         0.634213
 H         3.270268         1.662389        -0.722206
 H         2.223877         2.883859         0.279760
 H         2.120055         1.299035         3.494213
 H        -0.567181        -1.067241        -0.184043
 H        -0.349733         0.664035        -0.447257
 H         0.701676        -0.458033        -1.266568
 H         1.154004        -1.889990         2.119369
 H         2.195864        -1.939958         0.567242
 H         4.093611        -0.126804         3.369272
