19
Iteration:  2447
 C         3.264758         1.658281         0.382311
 C         2.297119         0.787087         1.102490
 C         1.705525         0.779999         2.526831
 O         0.410340         0.341315         2.161477
 C         1.009800        -0.164889         0.872623
 C         0.033841        -0.146196        -0.192612
 C         1.905269        -1.296227         1.267498
 C         2.714426        -0.303610         2.123631
 O         4.131828        -0.468328         2.418110
 H         4.121497         2.126999         1.070593
 H         3.764744         0.876564        -0.312572
 H         3.030234         2.595558        -0.278198
 H         1.670491         1.158192         3.567481
 H        -0.779911        -0.703736         0.255829
 H        -0.395973         0.849069        -0.256036
 H         0.350684        -0.527005        -1.101549
 H         1.288502        -2.184811         1.788787
 H         2.468304        -1.755407         0.362163
 H         4.003208        -0.244992         3.338509
