19
Iteration:  3329
 C         3.102124         1.650485         0.242909
 C         2.337225         0.779383         1.107902
 C         1.739269         0.810412         2.518621
 O         0.465399         0.334396         2.167032
 C         0.993428        -0.127818         0.870697
 C         0.072292        -0.064147        -0.288009
 C         1.860167        -1.428468         1.374928
 C         2.829667        -0.315556         2.075347
 O         4.100181        -0.423449         2.596446
 H         4.210583         1.511383         0.472031
 H         2.925743         1.152998        -0.703489
 H         2.727344         2.690120         0.277987
 H         1.828103         1.489380         3.334405
 H        -0.874653        -0.423779         0.026542
 H        -0.064950         0.866581        -0.734446
 H         0.487021        -0.627054        -1.138197
 H         1.248690        -2.041478         2.067100
 H         2.547145        -1.944941         0.642538
 H         4.074205        -0.964309         3.420987
