19
Iteration:  4526charge 0 multiplicity 1
 C         3.306313         1.558863         0.286474
 C         2.389554         0.654661         1.024396
 C         1.815586         0.830314         2.539234
 O         0.459359         0.307359         2.221552
 C         1.023283        -0.169398         0.910597
 C        -0.020912         0.026365        -0.149274
 C         1.847114        -1.403667         1.362894
 C         2.630542        -0.301854         2.113513
 O         4.058873        -0.364964         2.420585
 H         2.881518         1.457069        -0.742722
 H         3.242016         2.662051         0.399026
 H         4.367468         1.201968         0.128009
 H         1.899037         1.628243         3.268428
 H        -0.883916        -0.566647         0.254742
 H        -0.231244         1.047975        -0.157233
 H         0.141138        -0.237353        -1.166481
 H         0.982025        -2.121331         1.706945
 H         2.527463        -1.676591         0.474217
 H         4.252407        -0.886737         3.216895
