19
Iteration:  3326
 C         3.117071         1.637106         0.252070
 C         2.296324         0.778342         1.127718
 C         1.763849         0.819226         2.526779
 O         0.477004         0.334740         2.168836
 C         0.982125        -0.136566         0.860692
 C         0.078828        -0.079880        -0.290718
 C         1.882155        -1.414681         1.364724
 C         2.778287        -0.330518         2.077404
 O         4.105422        -0.401544         2.596393
 H         4.279212         1.470538         0.497887
 H         2.933605         1.195732        -0.752135
 H         2.753411         2.614315         0.230533
 H         1.946347         1.458537         3.358905
 H        -0.898525        -0.427141         0.021042
 H        -0.042140         0.996211        -0.768900
 H         0.495545        -0.702689        -1.068321
 H         1.336155        -1.982105         2.019076
 H         2.426134        -1.902699         0.533594
 H         4.035504        -0.992445         3.372023
