19
Iteration:  2244
 C         3.221673         1.636753         0.285974
 C         2.257512         0.821367         1.156024
 C         1.740719         0.726420         2.548176
 O         0.462397         0.301353         2.204914
 C         1.059698        -0.142555         0.799601
 C         0.046694        -0.164735        -0.216741
 C         1.864277        -1.308721         1.236130
 C         2.752776        -0.261164         2.046868
 O         4.085826        -0.409912         2.577933
 H         3.884529         2.159334         1.012731
 H         3.729864         1.086242        -0.500108
 H         2.730048         2.547782        -0.270064
 H         2.005600         1.257546         3.459522
 H        -0.844971        -0.617422         0.277954
 H        -0.179219         0.926052        -0.403331
 H         0.223422        -0.736473        -1.164370
 H         1.333721        -2.250451         1.616871
 H         2.505317        -1.752442         0.392107
 H         3.887058        -0.638271         3.489134
