19
Iteration:  2219
 C         3.198182         1.680228         0.223197
 C         2.296736         0.794521         1.137794
 C         1.784018         0.791271         2.500072
 O         0.462875         0.245573         2.228732
 C         0.958830        -0.112969         0.946603
 C         0.095520        -0.046902        -0.274581
 C         1.928406        -1.422165         1.336488
 C         2.736394        -0.296770         2.023790
 O         4.006030        -0.378110         2.598445
 H         3.923151         2.329048         0.820337
 H         3.609036         1.236050        -0.722481
 H         2.576452         2.442480        -0.136857
 H         2.123192         1.253519         3.387317
 H        -0.783376        -0.799709        -0.177395
 H        -0.255468         0.979033        -0.668602
 H         0.737854        -0.544562        -1.056642
 H         1.535894        -2.332308         1.890012
 H         2.341585        -1.917141         0.341880
 H         4.073869        -1.235386         3.084368
