19
Iteration:  4914
 C         3.109627         1.482105         0.152655
 C         2.248848         0.766378         1.203651
 C         1.714281         0.790787         2.613843
 O         0.406436         0.411322         2.219715
 C         1.078852        -0.149744         0.876885
 C         0.166765        -0.131230        -0.319395
 C         1.933410        -1.364669         1.335362
 C         2.745497        -0.313299         2.070742
 O         4.075629        -0.282764         2.570259
 H         3.320689         0.756761        -0.652712
 H         2.616877         2.307690        -0.488254
 H         4.051733         1.759155         0.706925
 H         1.992303         1.320915         3.520229
 H        -0.800888        -0.626010        -0.062253
 H        -0.063828         1.001010        -0.641903
 H         0.666528        -0.709183        -1.097499
 H         1.387344        -2.206600         1.816378
 H         2.331006        -1.798506         0.437806
 H         4.181106        -0.881809         3.332583
