19
Iteration:  1299
 C         2.997406         1.869874         0.307152
 C         2.322369         0.845431         1.090345
 C         1.830925         0.631679         2.572007
 O         0.462646         0.252736         2.228519
 C         1.054981        -0.062481         0.836765
 C         0.093554        -0.044524        -0.260729
 C         1.987963        -1.371031         1.231112
 C         2.810052        -0.341148         1.941632
 O         3.976108        -0.610476         2.685326
 H         3.655604         2.398557         0.940685
 H         3.429198         1.451852        -0.578452
 H         2.262949         2.687303        -0.040823
 H         1.994028         0.878125         3.555291
 H        -0.446226        -0.945855        -0.154979
 H        -0.669464         0.723378        -0.245396
 H         0.712434        -0.036264        -1.192358
 H         1.638557        -2.309302         1.759380
 H         2.433899        -1.763768         0.333392
 H         4.168129         0.226494         3.095750
