19
Iteration:   167charge 0 multiplicity 1
 C         2.936746         2.002845         0.406347
 C         2.210264         0.893557         1.203802
 C         1.617240         0.514766         2.671985
 O         0.456992         0.015445         2.294619
 C         1.043833        -0.106473         0.848022
 C         0.148873         0.143025        -0.376070
 C         2.080336        -1.275446         1.132672
 C         2.826361        -0.337193         1.969364
 O         4.111016        -0.696591         2.588304
 H         3.795678         2.300746         0.969150
 H         3.283888         1.715384        -0.560181
 H         2.327239         2.998084         0.292342
 H         1.964957         0.903608         3.706257
 H        -0.885227        -0.251656        -0.222359
 H         0.170684         1.193714        -0.543286
 H         0.426877        -0.324133        -1.265362
 H         1.615466        -2.116739         1.639055
 H         2.520950        -1.508018         0.205555
 H         4.690487        -0.128525         2.099651
