19
Iteration:  4694charge 0 multiplicity 1
 C         3.180720         1.598138         0.188551
 C         2.336766         0.874421         1.165564
 C         1.750294         0.820389         2.523522
 O         0.411516         0.403662         2.200694
 C         1.029722        -0.174636         1.034762
 C         0.087771        -0.120826        -0.181980
 C         1.915485        -1.366066         1.358253
 C         2.765284        -0.256890         1.976172
 O         4.008459        -0.534857         2.441727
 H         2.897512         2.684743         0.004387
 H         4.252910         1.479697         0.620856
 H         3.235137         0.984745        -0.677015
 H         1.916419         1.225355         3.515274
 H        -0.730489        -0.828357        -0.116841
 H        -0.243038         0.840016        -0.365019
 H         0.658722        -0.355769        -1.107263
 H         1.426461        -2.313312         1.874285
 H         2.476629        -1.768776         0.499436
 H         3.958841        -0.407512         3.403150
