19
Iteration:   142
 C         2.804912         1.933642         0.474647
 C         2.213350         0.876779         1.306559
 C         1.754576         0.576626         2.676866
 O         0.498105        -0.021980         2.230663
 C         1.099062        -0.040354         0.933304
 C         0.344891         0.201610        -0.335091
 C         1.958162        -1.382992         1.179338
 C         2.746778        -0.380803         1.929139
 O         4.015521        -0.627070         2.446632
 H         3.752115         2.455405         0.775512
 H         3.009717         1.376952        -0.548689
 H         2.132965         2.711867         0.217453
 H         2.046615         1.261321         3.407711
 H        -0.596269        -0.302619        -0.429356
 H         0.258851         1.267545        -0.534498
 H         0.945763        -0.257736        -1.140674
 H         1.530899        -2.258840         1.552482
 H         2.522312        -1.578079         0.245736
 H         4.479189         0.199799         2.361377
