19
Iteration:  2348charge 0 multiplicity 1
 C         2.824845         1.874206         0.216857
 C         2.340961         0.774240         1.097403
 C         1.856780         0.783587         2.558549
 O         0.477556         0.494536         2.085980
 C         1.073165        -0.125971         0.889191
 C         0.239288        -0.142071        -0.276195
 C         1.857446        -1.399605         1.418143
 C         2.853441        -0.374437         2.121024
 O         4.042957        -0.740415         2.602907
 H         3.803950         2.431777         0.351916
 H         3.028185         1.524830        -0.848001
 H         1.984038         2.668585         0.288875
 H         2.013008         1.622652         3.223725
 H        -0.434685        -0.982610        -0.079344
 H        -0.425701         0.695778        -0.357321
 H         0.838299        -0.253895        -1.123243
 H         1.305580        -2.146079         1.861693
 H         2.339433        -1.722217         0.519623
 H         4.040790        -0.661288         3.550888
