19
Iteration:  3647charge 0 multiplicity 1
 C         3.049011         1.678225         0.121774
 C         2.316965         0.883687         1.170704
 C         1.838101         0.831313         2.524337
 O         0.432029         0.412112         2.220980
 C         1.089471        -0.104932         0.935946
 C         0.149997        -0.123767        -0.278961
 C         1.833004        -1.331368         1.374527
 C         2.766126        -0.382989         2.096319
 O         4.062110        -0.597138         2.535189
 H         3.580181         2.558538         0.600986
 H         3.810943         1.089246        -0.430979
 H         2.344326         1.974897        -0.677189
 H         1.905016         1.545005         3.344130
 H        -0.846894        -0.705838        -0.089696
 H        -0.135160         0.805032        -0.675367
 H         0.635274        -0.880188        -1.025672
 H         1.330492        -2.069152         2.078973
 H         2.225705        -2.015623         0.652601
 H         4.100418        -0.807901         3.500198
