19
Iteration:   459charge 0 multiplicity 1
 C         2.963014         1.914413         0.651452
 C         2.248177         0.783198         1.165448
 C         1.907934         0.613590         2.545689
 O         0.413582         0.360828         2.114135
 C         1.085709        -0.121216         0.785049
 C         0.113345        -0.063507        -0.298216
 C         1.878222        -1.392890         1.220624
 C         2.773647        -0.461890         2.083101
 O         4.111048        -0.489502         2.498859
 H         3.659215         2.333510         1.358248
 H         3.570799         1.789520        -0.341319
 H         2.283396         2.685921         0.421039
 H         2.053483         1.238028         3.353310
 H        -0.650178        -0.902498        -0.148836
 H        -0.474883         0.832830        -0.292196
 H         0.617261        -0.183797        -1.220245
 H         1.263523        -2.149271         1.731421
 H         2.508877        -1.879152         0.407645
 H         4.500240        -1.038906         1.797067
