19
Iteration:   644charge 0 multiplicity 1
 C         3.069166         2.026422         0.534649
 C         2.369432         0.870505         1.253959
 C         1.712033         0.618688         2.536354
 O         0.427377         0.320620         2.146745
 C         1.091696        -0.082464         0.800400
 C         0.071623        -0.204149        -0.304321
 C         1.908706        -1.276708         1.190116
 C         2.770585        -0.440716         2.010115
 O         4.072893        -0.679426         2.557877
 H         3.976105         2.416767         0.974788
 H         3.387324         1.624383        -0.419029
 H         2.310951         2.817059         0.312830
 H         2.032042         1.189288         3.509890
 H        -0.670388        -0.949998         0.166096
 H        -0.533570         0.692744        -0.293961
 H         0.372453        -0.644073        -1.207876
 H         1.387715        -2.116227         1.598274
 H         2.438836        -1.522743         0.235746
 H         4.740553         0.013548         2.306377
