19
Iteration:  1859charge 0 multiplicity 1
 C         2.986449         1.856237         0.308281
 C         2.339447         0.734609         1.151360
 C         1.763357         0.744955         2.545864
 O         0.409857         0.429619         2.175554
 C         1.093306        -0.046623         0.976859
 C         0.126067        -0.162578        -0.305530
 C         1.875993        -1.464928         1.250895
 C         2.785076        -0.478680         2.035367
 O         4.124100        -0.522504         2.533255
 H         3.713368         2.142818         1.141041
 H         3.652398         1.643817        -0.539140
 H         2.332935         2.713878        -0.028871
 H         2.022515         1.280351         3.594404
 H        -0.916057        -0.507453        -0.023911
 H        -0.038095         0.726732        -0.892625
 H         0.479544        -1.055230        -0.874799
 H         1.409630        -2.269875         1.824781
 H         2.518405        -1.654920         0.383153
 H         4.013254         0.195011         3.225866
