19
Iteration:  3762charge 0 multiplicity 1
 C         3.093536         1.760382         0.231649
 C         2.359258         0.782983         1.095439
 C         1.935395         0.740695         2.482978
 O         0.461997         0.557024         2.258735
 C         0.948960        -0.051127         0.904375
 C         0.095205        -0.257742        -0.267778
 C         1.758351        -1.303988         1.360460
 C         2.792219        -0.385875         2.028089
 O         4.077111        -0.612053         2.563019
 H         2.832225         2.809638         0.165226
 H         4.183260         1.708055         0.338365
 H         2.953596         1.321373        -0.780414
 H         1.983677         1.400383         3.265290
 H        -0.499278        -1.258955         0.045365
 H        -0.697369         0.675611        -0.402331
 H         0.817078        -0.554770        -1.049054
 H         1.202773        -2.067771         1.891194
 H         2.220233        -1.904511         0.530506
 H         3.952295        -0.734283         3.536809
