19
Iteration:  3705
 C         3.294845         1.524446         0.235038
 C         2.345982         0.737287         1.103252
 C         1.771537         0.795364         2.508769
 O         0.440764         0.314051         2.115919
 C         0.980070        -0.180161         0.836937
 C        -0.054849         0.002018        -0.162614
 C         1.848873        -1.384497         1.393291
 C         2.789867        -0.293057         2.107293
 O         4.122592        -0.358619         2.514753
 H         3.256202         2.476022         0.664053
 H         4.312612         1.137587         0.241781
 H         2.810695         1.720285        -0.792097
 H         1.686724         1.454495         3.404938
 H        -0.996660        -0.587294         0.336306
 H        -0.328240         1.124122        -0.387282
 H         0.054839        -0.433935        -1.172246
 H         1.343579        -2.049328         2.110530
 H         2.369964        -1.798823         0.576393
 H         4.132499        -0.814305         3.366305
