19
Iteration:   334
 C         2.908849         1.903781         0.308063
 C         2.229572         0.869402         1.199056
 C         1.667589         0.645906         2.554943
 O         0.535198        -0.071430         2.246698
 C         1.141328        -0.179722         0.844954
 C         0.175028         0.298635        -0.239611
 C         1.994322        -1.401471         1.184627
 C         2.803431        -0.396969         1.972598
 O         4.004086        -0.545790         2.671178
 H         3.861446         2.346061         0.758866
 H         3.231531         1.605088        -0.668257
 H         2.280359         2.927561         0.155297
 H         1.825295         1.302991         3.380543
 H        -0.765612        -0.198635        -0.224774
 H         0.069629         1.413519        -0.024473
 H         0.443393         0.211352        -1.355091
 H         1.385325        -2.174391         1.677079
 H         2.609125        -1.668911         0.342352
 H         4.753593        -0.858692         2.099746
