19
Iteration:  1155charge 0 multiplicity 1
 C         2.879696         1.941218         0.421345
 C         2.397283         0.821499         1.234103
 C         1.768352         0.632678         2.535545
 O         0.460916         0.275109         2.047919
 C         1.127299        -0.093077         0.870195
 C         0.093621        -0.047349        -0.254459
 C         1.950673        -1.335939         1.217313
 C         2.844050        -0.431545         2.036458
 O         4.058427        -0.604469         2.580954
 H         3.701699         2.514042         0.904677
 H         3.190349         1.601435        -0.627585
 H         2.115418         2.758564         0.176707
 H         1.843029         1.072284         3.615117
 H        -0.510412        -0.972366        -0.280970
 H        -0.581322         0.762786        -0.056172
 H         0.529537         0.078786        -1.209739
 H         1.611946        -2.262276         1.654401
 H         2.474775        -1.560947         0.216327
 H         3.957170        -0.651894         3.525311
