19
Iteration:  1478
 C         3.010392         1.837176         0.336625
 C         2.447959         0.762357         1.191698
 C         1.801677         0.686340         2.555311
 O         0.429111         0.386963         2.163510
 C         0.967912        -0.120256         0.869999
 C         0.071337        -0.158875        -0.232868
 C         1.957549        -1.395588         1.180416
 C         2.807065        -0.358685         2.005344
 O         4.040839        -0.559610         2.648691
 H         3.842791         2.441154         0.818989
 H         3.432782         1.390269        -0.483078
 H         2.208355         2.515241        -0.126649
 H         1.983065         1.443002         3.252323
 H        -0.942312        -0.537031         0.127155
 H         0.042355         0.890046        -0.517425
 H         0.420969        -0.829003        -0.998247
 H         1.362878        -2.161145         1.733887
 H         2.217274        -1.733566         0.134972
 H         4.513300         0.234364         2.900897
