19
Iteration:  2954charge 0 multiplicity 1
 C         2.860747         1.709790         0.112600
 C         2.370607         0.730552         1.134409
 C         1.872975         0.734601         2.547535
 O         0.495388         0.386593         2.240177
 C         1.109774        -0.107843         0.928954
 C         0.215726        -0.010185        -0.315548
 C         1.856116        -1.339730         1.300272
 C         2.781361        -0.391801         2.090773
 O         3.998990        -0.548413         2.639500
 H         3.834241         2.015049         0.606845
 H         3.047974         1.268083        -0.852847
 H         2.227639         2.506966        -0.136305
 H         2.303680         1.212840         3.406286
 H        -0.812399        -0.351166        -0.095539
 H        -0.021961         1.066035        -0.599258
 H         0.583043        -0.566352        -1.169764
 H         1.286100        -1.990292         1.851859
 H         2.308003        -1.845237         0.442058
 H         3.896685        -0.703306         3.599747
