19
Iteration:  1131
 C         2.911575         1.951781         0.363102
 C         2.285527         0.846438         1.154446
 C         1.823195         0.610137         2.556756
 O         0.455030         0.206856         2.315689
 C         1.106416        -0.109898         0.863574
 C         0.113274        -0.000119        -0.370920
 C         2.001522        -1.331848         1.113518
 C         2.806432        -0.411283         2.009696
 O         3.990863        -0.648415         2.692903
 H         3.765589         2.412105         0.947698
 H         3.356395         1.483805        -0.590969
 H         2.331462         2.755107        -0.015464
 H         2.064069         1.260436         3.390939
 H        -0.406070        -0.944093        -0.469800
 H        -0.633458         0.759293        -0.232570
 H         0.611892         0.158618        -1.282156
 H         1.452446        -2.157992         1.514687
 H         2.684927        -1.679680         0.276377
 H         4.426137         0.266812         2.764775
