19
Iteration:   967charge 0 multiplicity 1
 C         2.917784         2.071133         0.497105
 C         2.356336         0.830234         1.215249
 C         1.772246         0.675442         2.588506
 O         0.428308         0.192504         2.195692
 C         1.065454        -0.116576         0.847955
 C         0.118473        -0.084002        -0.346491
 C         1.975085        -1.376649         1.131766
 C         2.824680        -0.383254         1.983503
 O         4.064410        -0.587719         2.569764
 H         3.750472         2.457888         1.124197
 H         3.409615         1.856379        -0.506132
 H         2.191691         2.760935         0.214267
 H         2.099642         1.056717         3.579643
 H        -0.520407        -0.969595        -0.295886
 H        -0.449466         0.844747        -0.301134
 H         0.691785        -0.060797        -1.258080
 H         1.616968        -2.328100         1.521001
 H         2.489390        -1.524482         0.152522
 H         3.843518        -1.243239         3.222526
