19
Iteration:  3828charge 0 multiplicity 1
 C         2.931185         1.741220         0.139847
 C         2.415051         0.702813         1.073371
 C         1.861845         0.802483         2.422453
 O         0.534370         0.468244         2.183526
 C         0.993345        -0.185026         0.973885
 C         0.106300         0.046292        -0.241722
 C         1.779265        -1.418500         1.433738
 C         2.806919        -0.334737         2.056532
 O         4.094893        -0.636534         2.630386
 H         2.164608         1.937416        -0.632731
 H         3.280243         2.635424         0.670551
 H         3.757244         1.249949        -0.430484
 H         2.038308         1.412313         3.308756
 H        -0.981599        -0.372588        -0.114996
 H        -0.028614         1.199684        -0.550652
 H         0.423529        -0.483947        -1.193689
 H         1.446443        -2.031251         2.249552
 H         2.393161        -1.996318         0.662644
 H         4.084826        -1.182866         3.423701
