19
Iteration:  2517charge 0 multiplicity 1
 C         3.014479         1.842557         0.333377
 C         2.461772         0.736522         1.137101
 C         1.834592         0.781902         2.510503
 O         0.496860         0.477872         2.103768
 C         1.065127        -0.150427         0.883483
 C         0.039046        -0.206751        -0.229695
 C         1.827840        -1.357390         1.361946
 C         2.773159        -0.381608         2.014322
 O         3.999288        -0.561364         2.562855
 H         4.101016         2.222072         0.702501
 H         3.212462         1.315086        -0.736485
 H         2.429582         2.749478         0.365475
 H         2.041049         1.376389         3.388178
 H        -0.791506        -0.918289        -0.178378
 H        -0.455082         0.774597        -0.257873
 H         0.564375        -0.273486        -1.240465
 H         1.420512        -2.058965         2.074260
 H         2.556852        -1.797187         0.649055
 H         4.156845        -1.298562         3.141982
