19
Iteration:  3697
 C         3.258367         1.548187         0.272259
 C         2.293096         0.719054         1.058535
 C         1.745987         0.799241         2.522458
 O         0.457923         0.348833         2.149546
 C         1.011630        -0.155743         0.937621
 C        -0.056843         0.010604        -0.249420
 C         1.843444        -1.405173         1.388365
 C         2.784291        -0.368762         2.037907
 O         4.157665        -0.321621         2.545349
 H         3.525160         2.570112         0.607413
 H         4.206990         1.067641         0.081145
 H         2.837303         1.444146        -0.698887
 H         1.761532         1.443471         3.347434
 H        -0.941065        -0.388229         0.222733
 H        -0.399419         1.111279        -0.360582
 H         0.034830        -0.591556        -1.109447
 H         1.285484        -2.174103         1.844009
 H         2.569335        -1.920526         0.671670
 H         4.081129        -0.829433         3.370093
