19
Iteration:  3649charge 0 multiplicity 1
 C         3.055045         1.684894         0.124173
 C         2.336045         0.878017         1.161704
 C         1.830879         0.818009         2.528340
 O         0.433047         0.405467         2.224031
 C         1.085395        -0.090920         0.923759
 C         0.158089        -0.128232        -0.258183
 C         1.825428        -1.350616         1.378662
 C         2.766743        -0.373089         2.101314
 O         4.048436        -0.578552         2.525530
 H         3.569265         2.459489         0.585287
 H         3.820569         1.078875        -0.366980
 H         2.364971         1.911506        -0.730603
 H         1.968205         1.559325         3.385137
 H        -0.908150        -0.703328        -0.127940
 H        -0.104980         0.860205        -0.680747
 H         0.647563        -0.880441        -0.963817
 H         1.332625        -2.113802         2.019162
 H         2.219035        -1.940980         0.606001
 H         4.063946        -0.782120         3.477144
