19
Iteration:  1004charge 0 multiplicity 1
 C         2.931871         2.069277         0.550554
 C         2.387674         0.902838         1.225763
 C         1.742497         0.704683         2.559503
 O         0.399009         0.232532         2.110227
 C         1.159597        -0.156432         0.791558
 C         0.088687        -0.152879        -0.296250
 C         1.930372        -1.370159         1.116630
 C         2.802915        -0.348801         2.016330
 O         4.092618        -0.647192         2.640207
 H         3.755204         2.370938         1.187001
 H         3.344502         1.784114        -0.363942
 H         2.280353         3.014892         0.580155
 H         1.883319         1.034742         3.609444
 H        -0.724864        -0.777014         0.280216
 H        -0.419783         0.818834        -0.539075
 H         0.236868        -0.680364        -1.286750
 H         1.432265        -2.275363         1.601486
 H         2.524046        -1.592517         0.151370
 H         4.667085        -0.922835         1.917438
