19
Iteration:  2580charge 0 multiplicity 1
 C         2.788029         1.765518         0.132388
 C         2.335409         0.786318         1.186782
 C         1.857915         0.714752         2.562824
 O         0.545484         0.419135         2.261386
 C         1.104552        -0.046632         0.892946
 C         0.223894         0.000168        -0.306140
 C         1.903899        -1.453163         1.321735
 C         2.769697        -0.399023         1.991816
 O         3.978724        -0.648281         2.619047
 H         3.719388         2.154523         0.641543
 H         3.171748         1.236447        -0.720272
 H         2.136816         2.494822        -0.254621
 H         2.237022         1.382980         3.275205
 H        -0.700873        -0.461721        -0.110071
 H         0.096736         1.020672        -0.629507
 H         0.812781        -0.532005        -1.028298
 H         1.227885        -2.028094         2.043007
 H         2.669942        -1.754020         0.516197
 H         3.807942        -0.339391         3.506236
