19
Iteration:   182
 C         2.935078         1.996673         0.522935
 C         2.308799         0.870587         1.290565
 C         1.801481         0.517053         2.606558
 O         0.356191         0.104448         2.123241
 C         1.061809        -0.066439         0.867810
 C         0.046457         0.073097        -0.262961
 C         2.061380        -1.324115         1.058171
 C         2.850865        -0.373970         1.984664
 O         4.070299        -0.615541         2.602422
 H         3.863424         2.407516         0.989260
 H         3.172785         1.607405        -0.467955
 H         2.253162         2.814061         0.373203
 H         1.715683         1.037997         3.491509
 H        -0.885930        -0.358242         0.098440
 H        -0.195970         1.142955        -0.556397
 H         0.490095        -0.518397        -1.139252
 H         1.781084        -2.387716         1.374658
 H         2.687220        -1.515887         0.101661
 H         4.866188        -0.452144         2.030263
