19
Iteration:  3109
 C         3.173333         1.639504         0.319356
 C         2.336748         0.718159         1.120056
 C         1.813605         0.717034         2.516190
 O         0.430061         0.391415         2.125658
 C         1.042797        -0.184167         0.885067
 C         0.048367        -0.030779        -0.197870
 C         1.875344        -1.427705         1.348687
 C         2.749831        -0.340918         2.020616
 O         4.047601        -0.316300         2.520235
 H         4.251188         1.583508         0.773845
 H         3.232074         1.211692        -0.657495
 H         2.821430         2.663266         0.142447
 H         1.963404         1.219071         3.603032
 H        -0.961004        -0.493690         0.104098
 H        -0.194083         1.006066        -0.562920
 H         0.392030        -0.666664        -1.057590
 H         1.458235        -2.176813         2.109269
 H         2.219387        -1.955340         0.370247
 H         4.060776        -0.748027         3.399683
