19
Iteration:  2271charge 0 multiplicity 1
 C         3.195398         1.756996         0.344085
 C         2.372838         0.775103         1.205390
 C         1.694247         0.743600         2.518477
 O         0.450751         0.363702         2.091402
 C         0.971140        -0.083746         0.828279
 C        -0.046596        -0.198939        -0.184481
 C         2.004169        -1.371165         1.303859
 C         2.770501        -0.317686         2.068432
 O         4.054457        -0.545260         2.524655
 H         4.040750         2.171492         0.908920
 H         3.671444         1.187044        -0.509241
 H         2.738579         2.596272        -0.145037
 H         1.840463         1.604279         3.216787
 H        -0.901676        -0.719611         0.206446
 H        -0.221929         0.822064        -0.378399
 H         0.206364        -0.679018        -1.083387
 H         1.691780        -2.214040         1.822446
 H         2.656131        -1.638604         0.517543
 H         4.017639         0.048898         3.284929
