19
Iteration:  2126
 C         2.964131         1.912895         0.239131
 C         2.388691         0.841142         1.053290
 C         1.803936         0.812753         2.462662
 O         0.539579         0.399072         2.240042
 C         1.076882        -0.180049         0.926113
 C         0.133668        -0.265887        -0.307179
 C         1.875527        -1.331793         1.334002
 C         2.776957        -0.348926         1.983523
 O         3.980740        -0.713540         2.678632
 H         3.691691         2.499495         0.802457
 H         3.312167         1.708816        -0.741495
 H         2.175286         2.772377         0.270941
 H         2.142513         1.293213         3.446759
 H        -0.715660        -0.952029        -0.264687
 H        -0.310878         0.680853        -0.605389
 H         0.813368        -0.483316        -1.149838
 H         1.418607        -1.919571         2.117988
 H         2.150982        -1.803982         0.401881
 H         4.129360        -0.127607         3.435865
