19
Iteration:  2682
 C         3.291862         1.714057         0.412042
 C         2.324606         0.791300         1.140428
 C         1.812907         0.716530         2.596772
 O         0.440913         0.493019         2.142124
 C         1.027896        -0.058110         0.849868
 C        -0.086494        -0.314663        -0.209633
 C         1.840222        -1.297954         1.301068
 C         2.791219        -0.313633         2.002647
 O         4.066978        -0.480690         2.435692
 H         4.108614         1.922282         1.075298
 H         3.685133         1.211095        -0.504383
 H         2.814687         2.630008         0.274491
 H         1.918419         1.269498         3.615277
 H        -0.609368        -1.202930         0.031382
 H        -0.715263         0.545729        -0.363176
 H         0.372494        -0.479668        -1.167255
 H         1.280509        -2.146724         1.747858
 H         2.247098        -1.783714         0.397864
 H         4.111781        -1.070374         3.231594
