19
Iteration:   151
 C         2.843787         1.967605         0.437913
 C         2.184724         0.952411         1.272914
 C         1.815309         0.599247         2.673112
 O         0.478500        -0.076817         2.286989
 C         1.077421        -0.131196         0.882712
 C         0.298027         0.186998        -0.351628
 C         1.936597        -1.360867         1.114451
 C         2.799320        -0.313577         1.999333
 O         3.996533        -0.645272         2.472369
 H         3.843883         2.288402         0.898619
 H         3.128438         1.410525        -0.567542
 H         2.223202         2.767808         0.209572
 H         1.814234         1.134592         3.574256
 H        -0.732533        -0.139190        -0.398503
 H         0.314562         1.298684        -0.582342
 H         0.847440        -0.275218        -1.267960
 H         1.433578        -2.156806         1.684418
 H         2.714665        -1.656378         0.286642
 H         4.708658        -0.021032         2.387317
