19
Iteration:  2909charge 0 multiplicity 1
 C         3.227832         1.650982         0.293686
 C         2.288046         0.840324         1.078268
 C         1.746282         0.780964         2.564182
 O         0.452401         0.350642         2.175047
 C         1.018687        -0.085766         0.808423
 C         0.002800        -0.143139        -0.198824
 C         1.865210        -1.327390         1.347122
 C         2.769811        -0.276323         2.037265
 O         4.120862        -0.538383         2.536150
 H         4.243708         1.784051         0.854255
 H         3.386564         1.293631        -0.713929
 H         2.663342         2.609396         0.177816
 H         1.814264         1.354510         3.430727
 H        -0.894674        -0.712070         0.137103
 H        -0.449654         0.873310        -0.325045
 H         0.429060        -0.576562        -1.156871
 H         1.389854        -2.065049         1.888166
 H         2.514205        -1.782653         0.562404
 H         4.075337        -1.116113         3.310296
