19
Iteration:  1819charge 0 multiplicity 1
 C         3.028367         1.875486         0.251064
 C         2.319430         0.801720         1.096954
 C         1.759384         0.802803         2.523623
 O         0.465965         0.250538         2.185340
 C         1.056282        -0.140350         0.835555
 C         0.124655        -0.101184        -0.273766
 C         1.898741        -1.396181         1.435276
 C         2.771860        -0.301490         2.054375
 O         4.077989        -0.568343         2.532754
 H         3.811471         2.225037         0.960326
 H         3.566226         1.503714        -0.598993
 H         2.408448         2.838250         0.159576
 H         1.758060         1.428030         3.422875
 H        -0.644782        -0.767198         0.128796
 H        -0.326670         0.917391        -0.582608
 H         0.656256        -0.428013        -1.210497
 H         1.343512        -2.063274         2.140731
 H         2.399633        -1.898631         0.508024
 H         4.187819        -1.233651         3.211109
