19
Iteration:  1734charge 0 multiplicity 1
 C         2.998608         1.769210         0.229632
 C         2.346235         0.836183         1.079430
 C         1.770236         0.747052         2.512561
 O         0.446176         0.344958         2.238785
 C         1.119981        -0.114788         0.854845
 C         0.092174        -0.127650        -0.284318
 C         1.932855        -1.357121         1.382269
 C         2.756903        -0.302064         2.027898
 O         4.017099        -0.613073         2.598849
 H         3.873645         2.080894         0.759790
 H         3.368927         1.305257        -0.807792
 H         2.414757         2.631951         0.000715
 H         1.948614         1.111995         3.508040
 H        -0.498510        -0.997731        -0.411105
 H        -0.466521         0.819589        -0.080713
 H         0.592744         0.020714        -1.239220
 H         1.498021        -2.117233         2.041807
 H         2.455727        -1.971105         0.648695
 H         4.558838        -0.079184         3.260650
