19
Iteration:  4842
 C         2.971891         1.874380         0.156344
 C         2.449529         0.750094         1.053207
 C         1.856725         0.795453         2.419913
 O         0.496231         0.516641         2.128480
 C         1.023169        -0.100619         0.966864
 C         0.074887        -0.270444        -0.283625
 C         1.867981        -1.388917         1.495962
 C         2.790996        -0.401718         1.998421
 O         4.012680        -0.610647         2.675547
 H         4.030414         1.700021         0.031989
 H         2.590132         1.973564        -0.801694
 H         2.898910         2.771655         0.805536
 H         1.977201         1.378429         3.335700
 H        -0.534666        -1.173270        -0.137664
 H        -0.563475         0.568719        -0.341556
 H         0.728548        -0.387996        -1.183571
 H         1.365062        -2.069614         2.184602
 H         2.254203        -2.039546         0.649835
 H         4.058805        -0.385553         3.614316
