19
Iteration:  3239
 C         3.171701         1.839034         0.294681
 C         2.426337         0.737087         1.032487
 C         1.788668         0.849903         2.419968
 O         0.457973         0.380904         2.158576
 C         0.979415        -0.235892         0.962964
 C         0.060652        -0.164225        -0.200853
 C         1.838766        -1.397110         1.403649
 C         2.739237        -0.374198         2.024609
 O         4.035658        -0.519015         2.535823
 H         3.926607         2.459497         0.904041
 H         3.849556         1.259753        -0.302859
 H         2.681814         2.557047        -0.231253
 H         2.011558         1.547867         3.289643
 H        -0.684048        -0.829526         0.026376
 H        -0.349700         0.825551        -0.170323
 H         0.428622        -0.274869        -1.132878
 H         1.325963        -2.200308         1.896310
 H         2.457087        -1.766171         0.572688
 H         3.762499        -0.499102         3.491827
