19
Iteration:  3223
 C         3.107234         1.817739         0.270398
 C         2.337856         0.753141         1.019896
 C         1.894349         0.747716         2.434244
 O         0.508948         0.470220         2.177844
 C         1.001876        -0.139104         0.899568
 C         0.030335        -0.181576        -0.210395
 C         1.848788        -1.419433         1.378532
 C         2.802751        -0.352396         1.976144
 O         4.013832        -0.554775         2.662784
 H         3.426796         2.493906         1.019993
 H         3.904756         1.579229        -0.503272
 H         2.230178         2.486245        -0.224295
 H         2.113956         1.457456         3.187238
 H        -0.670104        -1.127997        -0.314993
 H        -0.495293         0.822558        -0.244480
 H         0.802582        -0.285045        -1.105675
 H         1.308182        -2.095881         2.100902
 H         2.109164        -2.008830         0.498303
 H         3.997652        -0.752257         3.623922
