19
Iteration:  3753
 C         3.157447         1.716041         0.226160
 C         2.351368         0.737108         1.095853
 C         1.861072         0.813089         2.494831
 O         0.476184         0.497526         2.240835
 C         0.952447        -0.050558         0.952342
 C         0.014128        -0.280803        -0.235037
 C         1.828839        -1.274411         1.370076
 C         2.813383        -0.396941         2.002909
 O         4.063280        -0.584138         2.550609
 H         2.957877         2.822453         0.303693
 H         4.148581         1.385956         0.481429
 H         2.944859         1.487717        -0.751127
 H         2.093548         1.458676         3.333058
 H        -0.671639        -1.080832        -0.281489
 H        -0.507079         0.639804        -0.584602
 H         0.619718        -0.363880        -1.160184
 H         1.166339        -1.882947         1.876998
 H         2.329858        -1.647661         0.424424
 H         3.911301        -0.663352         3.522844
