19
Iteration:  3893
 C         3.279007         1.572856         0.256626
 C         2.299212         0.785313         1.060343
 C         1.758787         0.848711         2.525870
 O         0.474587         0.419620         2.229212
 C         0.959438        -0.118389         0.899552
 C        -0.080805        -0.086263        -0.158440
 C         1.909585        -1.322591         1.337525
 C         2.743657        -0.279645         2.083985
 O         4.085226        -0.588412         2.435786
 H         3.075327         1.644545        -0.834393
 H         3.485305         2.544432         0.734938
 H         4.273390         0.970671         0.185632
 H         2.132833         1.514973         3.321564
 H        -0.748838        -0.849354         0.296429
 H        -0.537780         0.926457        -0.401954
 H         0.332998        -0.407104        -1.100949
 H         1.415205        -2.097061         1.990411
 H         2.541699        -1.588598         0.421829
 H         4.008665        -0.824713         3.386990
