19
Iteration:  1006charge 0 multiplicity 1
 C         2.953937         2.080898         0.557064
 C         2.379550         0.921099         1.225504
 C         1.760227         0.703188         2.540562
 O         0.401688         0.213681         2.116259
 C         1.131829        -0.164028         0.801921
 C         0.085499        -0.145939        -0.304784
 C         1.931120        -1.372906         1.123329
 C         2.801021        -0.364043         2.012183
 O         4.085170        -0.650772         2.640955
 H         3.786017         2.401688         1.178233
 H         3.342107         1.802554        -0.438453
 H         2.255753         3.007877         0.561212
 H         1.838839         1.098900         3.665549
 H        -0.665240        -0.745383         0.281288
 H        -0.408563         0.817677        -0.577513
 H         0.253683        -0.722235        -1.301908
 H         1.388748        -2.256850         1.640950
 H         2.513200        -1.564576         0.217406
 H         4.755258        -0.824256         1.901984
