19
Iteration:  3775charge 0 multiplicity 1
 C         3.057254         1.778628         0.141110
 C         2.360659         0.800718         1.115175
 C         1.868588         0.812296         2.557409
 O         0.519697         0.542348         2.193150
 C         1.079633        -0.029086         0.954106
 C         0.135887        -0.253320        -0.228196
 C         1.732874        -1.400720         1.397132
 C         2.746008        -0.401241         2.015778
 O         4.039169        -0.645430         2.546263
 H         2.360068         2.661227         0.208789
 H         4.042603         2.006644         0.552087
 H         3.055187         1.494499        -0.840983
 H         2.353883         1.363229         3.381225
 H        -0.506731        -1.129270        -0.055538
 H        -0.554292         0.580234        -0.571421
 H         0.628913        -0.429840        -1.230464
 H         1.183763        -1.954521         2.080256
 H         2.112439        -1.859587         0.438273
 H         3.983081        -0.836602         3.487971
