19
Iteration:   529
 C         2.879571         1.823355         0.274852
 C         2.383628         0.795556         1.313876
 C         1.760739         0.639449         2.589737
 O         0.444349         0.194229         2.103699
 C         1.083240        -0.047902         0.844751
 C         0.010130         0.055539        -0.248460
 C         2.121933        -1.216172         1.047632
 C         2.821245        -0.414889         2.111711
 O         4.023242        -0.640652         2.765113
 H         3.870401         2.271613         0.459131
 H         2.997873         1.274070        -0.644893
 H         2.148811         2.618582         0.043375
 H         1.919211         1.166042         3.576318
 H        -0.918310        -0.374623        -0.041650
 H        -0.311660         1.129701        -0.130811
 H         0.368552        -0.047198        -1.327917
 H         1.599056        -2.201763         1.343186
 H         2.812861        -1.357166         0.222968
 H         4.672677        -1.037699         2.115940
