19
Iteration:  2661
 C         3.393526         1.769432         0.404810
 C         2.356717         0.846640         1.138689
 C         1.764385         0.788315         2.479438
 O         0.441168         0.412963         2.181666
 C         0.890334        -0.098891         0.935489
 C        -0.049846        -0.267529        -0.187914
 C         1.829865        -1.366918         1.215649
 C         2.729486        -0.409615         2.027249
 O         4.100584        -0.440078         2.495568
 H         4.216822         2.123871         0.995848
 H         3.797406         1.147494        -0.480395
 H         2.825962         2.636743         0.018193
 H         2.093009         1.457748         3.361418
 H        -0.680751        -1.152952         0.056779
 H        -0.660026         0.636056        -0.326640
 H         0.367491        -0.468535        -1.168111
 H         1.364864        -2.096793         1.795800
 H         2.137013        -1.865470         0.355131
 H         4.260465        -1.181737         3.103525
