19
Iteration:  4758
 C         3.119615         1.673246         0.190295
 C         2.291940         0.662090         1.056854
 C         1.799585         0.731242         2.492284
 O         0.391041         0.471779         2.137564
 C         1.004668        -0.176128         0.937327
 C         0.137417        -0.025470        -0.133034
 C         1.921346        -1.446115         1.429047
 C         2.813038        -0.375564         2.021885
 O         4.025145        -0.361034         2.538979
 H         3.475331         2.561075         0.903035
 H         4.020239         0.990127        -0.243399
 H         2.616571         2.078639        -0.683550
 H         2.190609         1.321094         3.327224
 H        -0.896058        -0.493449         0.201113
 H        -0.073412         0.957673        -0.457041
 H         0.488494        -0.778277        -0.985424
 H         1.330991        -2.218260         2.021321
 H         2.484704        -1.787677         0.566221
 H         4.014791        -0.983548         3.296473
