19
Iteration:  2302
 C         3.089017         1.904435         0.323867
 C         2.266080         0.891459         0.994794
 C         1.828206         0.757601         2.457327
 O         0.526315         0.338516         2.160606
 C         1.015574        -0.055056         0.906622
 C         0.075285        -0.242980        -0.258475
 C         1.871146        -1.413588         1.379716
 C         2.753490        -0.388440         2.071152
 O         4.015433        -0.646225         2.597410
 H         3.959384         2.033418         0.900894
 H         3.607418         1.530991        -0.545823
 H         2.679673         3.020688         0.108164
 H         2.155257         1.501581         3.247644
 H        -0.705226        -0.910779        -0.011127
 H        -0.363936         0.657830        -0.552694
 H         0.667976        -0.590134        -1.076562
 H         1.343625        -2.044710         2.115247
 H         2.423049        -1.903870         0.673231
 H         4.141820         0.107528         3.219556
