19
Iteration:  2091charge 0 multiplicity 1
 C         3.042713         1.786290         0.319922
 C         2.366608         0.803069         1.094749
 C         1.734898         0.763294         2.458874
 O         0.498432         0.356362         2.057677
 C         1.094378        -0.116102         0.773655
 C        -0.023966        -0.174938        -0.143920
 C         1.972540        -1.328420         1.294318
 C         2.835788        -0.307795         2.100682
 O         4.032233        -0.634315         2.650471
 H         3.840361         2.225413         1.032147
 H         3.531788         1.615377        -0.612760
 H         2.142290         2.506356         0.056778
 H         1.697370         1.242758         3.404370
 H        -0.935141        -0.556801         0.283503
 H        -0.187107         0.924379        -0.366803
 H         0.198127        -0.740968        -1.040041
 H         1.640772        -2.066807         2.033083
 H         2.496571        -1.912336         0.461042
 H         4.180415         0.026884         3.341418
