19
Iteration:  2788
 C         2.860705         1.698413         0.115078
 C         2.316426         0.803103         1.124046
 C         1.856207         0.790171         2.560378
 O         0.517941         0.394315         2.222226
 C         1.053011        -0.092607         0.897235
 C         0.174555         0.017457        -0.311352
 C         1.904353        -1.377377         1.300263
 C         2.822440        -0.414700         2.075039
 O         4.067029        -0.639325         2.681047
 H         3.692403         2.357802         0.663396
 H         3.138886         1.395305        -0.868863
 H         1.958048         2.380957        -0.118410
 H         2.014926         1.553559         3.422489
 H        -0.814172        -0.384774        -0.059543
 H        -0.101029         1.084413        -0.369322
 H         0.465224        -0.379434        -1.332526
 H         1.593741        -2.049959         2.011773
 H         2.397062        -1.864360         0.442453
 H         3.818564        -1.340988         3.343552
