19
Iteration:  4498
 C         3.244133         1.624815         0.297360
 C         2.304164         0.819224         1.079716
 C         1.810707         0.741304         2.532799
 O         0.452053         0.500249         2.213171
 C         0.963836        -0.074334         0.916696
 C        -0.088789        -0.138255        -0.190503
 C         1.883504        -1.397618         1.360891
 C         2.778022        -0.344076         1.926640
 O         4.145653        -0.518824         2.508445
 H         3.117388         1.282585        -0.782353
 H         3.240385         2.767118         0.319008
 H         4.163652         1.123513         0.492308
 H         2.001355         1.329273         3.442036
 H        -0.746810        -0.987466         0.108754
 H        -0.584964         0.895632        -0.220805
 H         0.444898        -0.350279        -1.201164
 H         1.219673        -1.938531         1.964576
 H         2.159327        -1.935147         0.500201
 H         4.044305        -0.723896         3.454714
