19
Iteration:   570charge 0 multiplicity 1
 C         2.897932         1.988886         0.423526
 C         2.356377         0.859690         1.132632
 C         1.861335         0.621667         2.534450
 O         0.486020         0.134973         2.278757
 C         1.103420        -0.106810         0.864105
 C         0.182458         0.037595        -0.362094
 C         1.899752        -1.384536         1.276704
 C         2.779635        -0.361020         1.944539
 O         3.942371        -0.557019         2.616276
 H         3.767616         2.322732         0.990704
 H         3.425278         1.578208        -0.552457
 H         2.199666         2.737792         0.233470
 H         2.052478         1.199444         3.530885
 H        -0.631850        -0.680622        -0.482033
 H        -0.167121         1.093322        -0.416754
 H         0.842989        -0.203032        -1.206631
 H         1.420276        -2.067035         1.987220
 H         2.207224        -1.862103         0.340147
 H         4.421783        -1.308781         2.207605
