19
Iteration:  4595charge 0 multiplicity 1
 C         2.932402         1.751160         0.177136
 C         2.346570         0.750935         1.147875
 C         1.907050         0.883741         2.554692
 O         0.553758         0.439922         2.216376
 C         1.083303        -0.062141         0.868757
 C         0.116883        -0.151025        -0.266041
 C         1.721572        -1.324840         1.342141
 C         2.763466        -0.377763         2.124119
 O         4.063004        -0.683875         2.522659
 H         2.344304         1.778465        -0.799233
 H         3.053791         2.839592         0.546248
 H         3.832008         1.302457        -0.062828
 H         2.217723         1.587548         3.343267
 H        -0.748770        -0.769561         0.046198
 H        -0.077746         0.812964        -0.655014
 H         0.697142        -0.692621        -1.076198
 H         1.327911        -2.155084         2.037600
 H         2.461743        -1.716506         0.640395
 H         3.938507        -0.794964         3.481474
