19
Iteration:  4501charge 0 multiplicity 1
 C         3.234135         1.616413         0.272890
 C         2.323288         0.834143         1.098436
 C         1.776606         0.744468         2.522308
 O         0.459507         0.488786         2.193467
 C         0.990341        -0.107093         0.915192
 C        -0.088093        -0.110791        -0.149948
 C         1.890184        -1.397329         1.369217
 C         2.736370        -0.376955         1.920976
 O         4.141458        -0.492212         2.499786
 H         3.199615         1.414738        -0.768567
 H         3.307941         2.640364         0.345340
 H         4.226778         1.033647         0.566270
 H         1.958391         1.328895         3.425256
 H        -0.738741        -0.898454         0.046341
 H        -0.541300         0.923823        -0.259121
 H         0.373262        -0.293512        -1.085933
 H         1.307819        -1.960935         2.060989
 H         2.192186        -1.885595         0.451038
 H         4.111689        -0.744551         3.442328
