19
Iteration:  4139charge 0 multiplicity 1
 C         3.293019         1.658676         0.307594
 C         2.333129         0.818418         1.102242
 C         1.906236         0.766050         2.517775
 O         0.434827         0.512959         2.230410
 C         0.974789        -0.040927         1.002442
 C        -0.075930        -0.101405        -0.119755
 C         1.739661        -1.375475         1.341991
 C         2.811661        -0.390449         1.971116
 O         4.092828        -0.607119         2.356021
 H         4.213272         1.951744         0.816509
 H         3.660448         1.009268        -0.478826
 H         2.796322         2.546489        -0.232136
 H         2.061095         1.506770         3.337184
 H        -0.791408        -0.914979         0.012652
 H        -0.689353         0.756418        -0.289690
 H         0.409579        -0.364296        -1.140590
 H         1.295265        -1.993743         2.166718
 H         1.957794        -1.957967         0.476695
 H         4.221566        -1.114353         3.173669
