19
Iteration:  3629charge 0 multiplicity 1
 C         2.946784         1.762446         0.158441
 C         2.369765         0.756546         1.079735
 C         1.770383         0.850836         2.531629
 O         0.477948         0.454866         2.156094
 C         1.044393        -0.071397         0.863760
 C         0.131612        -0.179198        -0.303570
 C         1.848717        -1.333506         1.526655
 C         2.842630        -0.254228         2.079620
 O         4.122011        -0.730751         2.585040
 H         3.665523         2.324073         0.674963
 H         3.480368         1.214757        -0.621165
 H         2.134335         2.293188        -0.399713
 H         2.047270         1.515446         3.409124
 H        -0.796183        -0.847334        -0.184176
 H        -0.293806         0.867490        -0.435648
 H         0.620361        -0.572348        -1.177740
 H         1.243995        -2.034961         2.118888
 H         2.344262        -1.842994         0.714030
 H         3.877728        -0.950206         3.517885
