19
Iteration:  4728charge 0 multiplicity 1
 C         3.159873         1.525777         0.213085
 C         2.291676         0.734304         1.195972
 C         1.786744         0.847763         2.550794
 O         0.508712         0.298990         2.215583
 C         1.005377        -0.174707         0.912252
 C         0.007424        -0.028911        -0.338627
 C         1.747702        -1.392605         1.351656
 C         2.798349        -0.318327         2.156072
 O         4.137589        -0.313422         2.471788
 H         3.407844         2.615209         0.287574
 H         4.243608         1.166011         0.218299
 H         2.816791         1.543001        -0.804967
 H         1.914003         1.355232         3.510446
 H        -0.906996        -0.432373        -0.082879
 H        -0.138634         1.003782        -0.602522
 H         0.523121        -0.638129        -1.044906
 H         0.986166        -2.215913         1.782009
 H         2.447587        -1.803011         0.613332
 H         4.167232        -0.746747         3.343062
