19
Iteration:  2771
 C         2.816050         1.813834         0.091783
 C         2.443303         0.700903         1.144811
 C         1.881777         0.689634         2.503100
 O         0.499953         0.393605         2.186655
 C         1.092617        -0.089645         0.952875
 C         0.166876         0.085205        -0.252070
 C         1.845450        -1.429627         1.319333
 C         2.786028        -0.423294         2.102469
 O         4.026789        -0.561504         2.674519
 H         3.656799         2.371917         0.215276
 H         3.070139         1.202817        -0.846755
 H         2.030370         2.495300        -0.157938
 H         2.119795         1.216107         3.383711
 H        -0.806579        -0.413919        -0.152813
 H        -0.020084         1.111614        -0.610980
 H         0.753512        -0.472532        -0.924930
 H         1.125559        -2.330431         1.706821
 H         2.519065        -1.674405         0.456971
 H         4.110188        -1.055074         3.523053
