19
Iteration:  2784
 C         2.865548         1.733444         0.108683
 C         2.337423         0.789033         1.105935
 C         1.870314         0.782588         2.579824
 O         0.519566         0.384328         2.205362
 C         1.040165        -0.067130         0.900039
 C         0.178854         0.033095        -0.296238
 C         1.923754        -1.391188         1.312366
 C         2.782774        -0.449139         2.097170
 O         4.077192        -0.615958         2.688393
 H         3.623973         2.359388         0.521643
 H         3.082885         1.296058        -0.921987
 H         1.874208         2.335999        -0.064422
 H         2.079663         1.473017         3.333411
 H        -0.856936        -0.445902        -0.068731
 H        -0.014924         1.141736        -0.473152
 H         0.499739        -0.358960        -1.286673
 H         1.445574        -2.233211         1.945980
 H         2.292929        -1.826247         0.397447
 H         3.816710        -1.276146         3.341464
