19
Iteration:  3379
 C         2.899755         1.823883         0.163572
 C         2.387221         0.718614         1.058892
 C         1.899331         0.862884         2.493359
 O         0.517517         0.474358         2.211011
 C         1.046858        -0.139233         0.887659
 C         0.149941        -0.193610        -0.318463
 C         1.865353        -1.343004         1.427492
 C         2.824516        -0.390007         2.014063
 O         3.988920        -0.694434         2.706174
 H         3.642592         2.383037         0.760621
 H         3.286941         1.491850        -0.814728
 H         2.076242         2.473421         0.173027
 H         2.273266         1.656337         3.094097
 H        -0.521422        -1.072482        -0.249188
 H        -0.538979         0.775928        -0.507236
 H         0.707658        -0.220303        -1.242671
 H         1.377093        -2.085047         2.068453
 H         2.205127        -1.801679         0.472969
 H         3.885526        -0.232283         3.565349
