19
Iteration:   823charge 0 multiplicity 1
 C         2.918044         2.125350         0.611375
 C         2.380197         0.825657         1.204295
 C         1.812547         0.669777         2.559427
 O         0.429292         0.303713         2.090979
 C         1.119098        -0.134642         0.764727
 C         0.010285        -0.156077        -0.321057
 C         2.027005        -1.352306         1.133709
 C         2.781843        -0.454532         2.032759
 O         4.042129        -0.663808         2.643956
 H         3.758769         2.441760         1.241429
 H         3.253960         2.088220        -0.483640
 H         2.192538         2.845804         0.673348
 H         2.125750         1.226297         3.521683
 H        -0.629352        -0.785497         0.253121
 H        -0.505841         0.797446        -0.443395
 H         0.076078        -0.605046        -1.346607
 H         1.612924        -2.308568         1.526726
 H         2.681331        -1.549219         0.289098
 H         4.669172        -0.748812         1.899607
