19
Iteration:   326charge 0 multiplicity 1
 C         2.926132         1.941431         0.308950
 C         2.241826         0.818641         1.167156
 C         1.767470         0.645025         2.609599
 O         0.500396        -0.065208         2.245791
 C         1.076789        -0.193936         0.837428
 C         0.217239         0.254400        -0.224614
 C         1.963439        -1.366361         1.143258
 C         2.757610        -0.336360         1.964877
 O         4.009492        -0.525236         2.677602
 H         3.791846         2.255973         0.913309
 H         3.187614         1.491619        -0.694172
 H         2.229927         2.716176         0.201030
 H         1.914939         1.166589         3.634649
 H        -0.805278        -0.180205        -0.320024
 H         0.174437         1.341147        -0.038763
 H         0.918229         0.123104        -1.120051
 H         1.375161        -2.185398         1.581845
 H         2.502201        -1.854061         0.236794
 H         4.509539        -0.671407         1.873279
