19
Iteration:   843charge 0 multiplicity 1
 C         2.987640         2.085652         0.603723
 C         2.310298         0.859840         1.109374
 C         1.750961         0.597531         2.522262
 O         0.543336         0.127034         2.151420
 C         1.052144        -0.103724         0.862940
 C         0.047555        -0.128833        -0.243610
 C         1.986613        -1.287789         1.096258
 C         2.832911        -0.291109         1.915760
 O         3.970678        -0.622020         2.669132
 H         3.820938         2.353754         1.257067
 H         3.367013         1.884818        -0.444829
 H         2.334030         2.975511         0.548250
 H         1.936179         1.244170         3.396384
 H        -0.805349        -0.678500        -0.026386
 H        -0.154393         0.859457        -0.669163
 H         0.680033        -0.599415        -1.023160
 H         1.479155        -2.038315         1.713338
 H         2.460932        -1.605753         0.216089
 H         4.404660        -1.334787         2.217130
