19
Iteration:  3252charge 0 multiplicity 1
 C         3.259631         1.698683         0.296277
 C         2.324444         0.809660         1.104627
 C         1.753692         0.844763         2.459189
 O         0.428450         0.330682         2.147689
 C         1.072601        -0.141847         0.861599
 C        -0.010416        -0.133840        -0.190605
 C         1.906468        -1.419494         1.395652
 C         2.744081        -0.297896         2.085427
 O         4.029904        -0.499964         2.489325
 H         3.894997         2.090036         1.108904
 H         3.818468         1.331122        -0.526785
 H         2.605940         2.447450        -0.110319
 H         1.849136         1.520911         3.254983
 H        -0.842454        -0.746056         0.065538
 H        -0.397297         0.832820        -0.327463
 H         0.407361        -0.541836        -1.117554
 H         1.364820        -2.157099         2.080359
 H         2.436297        -1.931810         0.525430
 H         4.287817        -0.527317         3.411704
