19
Iteration:  1633charge 0 multiplicity 1
 C         3.065759         1.848728         0.272697
 C         2.305628         0.799179         1.031392
 C         1.798279         0.816609         2.493533
 O         0.495119         0.248514         2.227955
 C         1.072611        -0.196496         0.878866
 C         0.072827        -0.115245        -0.235859
 C         1.939059        -1.357973         1.361707
 C         2.718630        -0.283506         2.072243
 O         4.033635        -0.562380         2.566169
 H         3.961546         2.136194         0.939071
 H         3.584471         1.295092        -0.511421
 H         2.599593         2.849028        -0.047630
 H         2.019510         1.811695         2.989244
 H        -0.889597        -0.398773         0.187389
 H        -0.128697         0.832006        -0.735159
 H         0.413540        -0.816990        -1.036604
 H         1.307821        -2.087843         1.850942
 H         2.421087        -1.828688         0.427239
 H         3.944283        -0.980999         3.447359
