19
Iteration:  4706
 C         3.250658         1.542247         0.177301
 C         2.247392         0.822828         1.140549
 C         1.704762         0.740052         2.584466
 O         0.415800         0.322012         2.243868
 C         1.024280        -0.094577         0.908300
 C         0.143831        -0.069531        -0.208843
 C         1.923749        -1.300228         1.406565
 C         2.727275        -0.321339         2.015890
 O         4.031547        -0.458923         2.417197
 H         3.143216         2.656573         0.018871
 H         4.362117         1.414447         0.337160
 H         2.969410         1.251565        -0.805661
 H         1.866386         1.442174         3.407174
 H        -0.684615        -0.627198         0.125629
 H        -0.215090         0.929169        -0.333469
 H         0.594680        -0.548400        -1.067051
 H         1.529798        -2.002525         2.271485
 H         2.271397        -1.773723         0.493278
 H         4.102763        -0.454183         3.391874
