19
Iteration:  2617
 C         3.099117         1.757830         0.251775
 C         2.346008         0.839816         1.098977
 C         1.760290         0.801231         2.514265
 O         0.449586         0.327043         2.167029
 C         1.079076        -0.153135         0.871948
 C        -0.009310        -0.014344        -0.202084
 C         1.886922        -1.410525         1.355523
 C         2.799216        -0.389522         2.078289
 O         4.110789        -0.595754         2.546237
 H         3.913995         2.185850         0.876962
 H         3.660777         1.200236        -0.626321
 H         2.472692         2.606730        -0.189854
 H         1.784458         1.566623         3.373701
 H        -0.902878        -0.667902        -0.080150
 H        -0.232536         1.021504        -0.454790
 H         0.444699        -0.384132        -1.143668
 H         1.309449        -2.145826         1.832867
 H         2.359571        -1.887526         0.567498
 H         4.058129        -0.448963         3.516213
