19
Iteration:  1658charge 0 multiplicity 1
 C         3.033760         1.795177         0.320889
 C         2.406822         0.772667         1.143625
 C         1.749488         0.733083         2.553933
 O         0.438052         0.442563         2.080997
 C         1.018990        -0.096566         0.926085
 C         0.038532        -0.158552        -0.243119
 C         1.931546        -1.414687         1.355953
 C         2.750385        -0.407084         1.962954
 O         4.139749        -0.441007         2.597207
 H         3.775765         2.348454         0.832579
 H         3.556515         1.265233        -0.577824
 H         2.307277         2.483569         0.013714
 H         2.001589         1.048837         3.632036
 H        -0.954926        -0.441847         0.132503
 H        -0.135691         0.784913        -0.851852
 H         0.455811        -0.882216        -0.982730
 H         1.357969        -2.156413         1.954721
 H         2.325111        -1.945255         0.455172
 H         4.281213        -1.278326         3.005491
