19
Iteration:  4944charge 0 multiplicity 1
 C         3.196262         1.621926         0.139459
 C         2.295561         0.777168         1.105594
 C         1.705787         0.803351         2.592208
 O         0.465690         0.297481         2.204780
 C         1.068834        -0.173717         0.864336
 C         0.129656        -0.177851        -0.269611
 C         1.854677        -1.352160         1.388350
 C         2.708475        -0.278614         2.138885
 O         4.026468        -0.345751         2.551226
 H         3.050209         1.211010        -0.907513
 H         3.158289         2.739697         0.163985
 H         4.210479         1.364867         0.310024
 H         1.820420         1.624981         3.299722
 H        -0.884365        -0.706163        -0.008416
 H         0.057382         0.887507        -0.609419
 H         0.696827        -0.829528        -1.026887
 H         1.186232        -2.052016         1.885141
 H         2.436498        -1.651282         0.521025
 H         4.243861        -0.524359         3.479229
