19
Iteration:  4921
 C         3.115704         1.436597         0.188006
 C         2.305411         0.791560         1.188295
 C         1.761467         0.844842         2.568869
 O         0.415028         0.318559         2.227046
 C         1.055787        -0.078922         0.874896
 C         0.161686        -0.121368        -0.336617
 C         1.875745        -1.372682         1.318375
 C         2.715154        -0.312854         2.115800
 O         4.058384        -0.274064         2.565962
 H         3.257261         0.765001        -0.710278
 H         2.577611         2.371471        -0.046483
 H         4.085708         1.753009         0.448012
 H         2.007989         1.322049         3.519757
 H        -0.783065        -0.699479         0.039273
 H        -0.078173         0.827715        -0.793544
 H         0.687078        -0.834617        -1.087528
 H         1.350316        -2.110114         1.902197
 H         2.436748        -1.638084         0.402559
 H         4.354149        -0.772329         3.341257
