19
Iteration:  3062charge 0 multiplicity 1
 C         3.321859         1.678709         0.354458
 C         2.290993         0.866330         1.102291
 C         1.750368         0.854445         2.488834
 O         0.480894         0.339844         2.140074
 C         1.023383        -0.067892         0.902316
 C         0.020733        -0.250960        -0.137969
 C         1.875153        -1.324023         1.352816
 C         2.712940        -0.317348         1.982586
 O         3.997856        -0.504532         2.454907
 H         4.172836         1.970581         1.090265
 H         3.845355         1.004704        -0.494659
 H         2.867962         2.657985         0.068270
 H         1.863421         1.320465         3.463861
 H        -0.708458        -1.045436         0.157226
 H        -0.541127         0.749309        -0.249843
 H         0.380352        -0.520440        -1.112006
 H         1.307785        -2.222278         1.860678
 H         2.538612        -1.743820         0.476748
 H         4.030832        -0.869907         3.376257
