19
Iteration:  1555
 C         3.001346         1.806383         0.273792
 C         2.301956         0.836937         1.119969
 C         1.866427         0.755692         2.563735
 O         0.451959         0.372925         2.256145
 C         1.038397        -0.154564         0.822777
 C         0.154018        -0.136243        -0.318749
 C         1.920348        -1.390605         1.381196
 C         2.736435        -0.349259         2.027361
 O         4.012100        -0.558902         2.644841
 H         3.982370         2.171672         0.765721
 H         3.230298         1.368846        -0.654501
 H         2.319152         2.732688         0.075073
 H         1.899946         1.571020         3.172048
 H        -0.397138        -1.115303        -0.425376
 H        -0.560727         0.671215        -0.293229
 H         0.835824        -0.010880        -1.166171
 H         1.314656        -2.095897         1.958113
 H         2.495406        -1.817397         0.504968
 H         4.590989        -0.991777         1.931128
