19
Iteration:  4022charge 0 multiplicity 1
 C         2.923931         1.691332         0.037467
 C         2.419446         0.748608         1.079350
 C         1.935020         0.796238         2.503008
 O         0.492312         0.469402         2.260019
 C         1.060313        -0.092491         0.931303
 C         0.109506         0.061525        -0.126214
 C         1.831039        -1.386900         1.352165
 C         2.861663        -0.432454         2.007309
 O         4.009571        -0.686075         2.635476
 H         3.547767         1.147596        -0.641862
 H         2.121455         2.014941        -0.620141
 H         3.377047         2.703081         0.435708
 H         2.056321         1.416349         3.399433
 H        -1.003404        -0.161735         0.089862
 H         0.018679         1.129502        -0.421340
 H         0.373242        -0.652674        -0.971134
 H         1.195792        -2.252422         1.841213
 H         2.090941        -1.750967         0.283701
 H         3.878861        -0.830995         3.580596
