19
Iteration:  2393charge 0 multiplicity 1
 C         2.921845         1.783908         0.123090
 C         2.342839         0.781676         1.125960
 C         1.884452         0.752701         2.529197
 O         0.447948         0.311975         2.220342
 C         1.080318        -0.145890         0.902553
 C         0.215972        -0.054434        -0.240221
 C         1.802277        -1.400399         1.330731
 C         2.801908        -0.368404         1.996486
 O         4.038735        -0.494285         2.693183
 H         3.910359         2.227104         0.645583
 H         3.527370         1.251075        -0.727026
 H         2.194055         2.596303        -0.236319
 H         1.981623         1.477106         3.324062
 H        -0.774495        -0.514962        -0.187922
 H        -0.001675         1.027706        -0.350416
 H         0.718799        -0.323073        -1.143127
 H         1.301198        -1.932044         2.057995
 H         2.283763        -1.818176         0.414475
 H         3.845013        -1.336473         3.090263
