19
Iteration:   626charge 0 multiplicity 1
 C         2.947365         1.959559         0.584283
 C         2.367104         0.794728         1.258737
 C         1.805547         0.687558         2.678721
 O         0.436655         0.438585         1.984418
 C         1.093525        -0.023949         0.859521
 C         0.101049        -0.212948        -0.234297
 C         1.932041        -1.414493         1.145502
 C         2.756133        -0.403898         2.059071
 O         4.092074        -0.682402         2.465049
 H         3.686026         2.393266         1.289874
 H         3.376191         1.730601        -0.520538
 H         2.207834         2.691892         0.495963
 H         1.537388         1.193975         3.613089
 H        -0.574187        -1.000080        -0.014970
 H        -0.600446         0.632953        -0.505856
 H         0.704080        -0.439929        -1.181176
 H         1.238252        -2.136126         1.672221
 H         2.548713        -1.855168         0.389038
 H         4.752969        -0.026145         2.060159
