19
Iteration:  4620charge 0 multiplicity 1
 C         2.980469         1.939581         0.177698
 C         2.405903         0.699732         0.982051
 C         1.894233         0.862148         2.428476
 O         0.462294         0.494252         2.176241
 C         1.046974        -0.125914         0.931982
 C         0.071489        -0.159673        -0.219520
 C         1.831392        -1.378286         1.484395
 C         2.814855        -0.377108         2.029898
 O         4.051872        -0.764582         2.624197
 H         2.272493         2.102557        -0.615612
 H         2.970714         2.837693         0.778201
 H         3.978760         1.744048        -0.290200
 H         2.258141         1.428544         3.282583
 H        -0.639416        -0.964693        -0.068797
 H        -0.402208         0.930374        -0.294277
 H         0.600735        -0.282164        -1.191849
 H         1.530336        -1.989725         2.301874
 H         2.358411        -1.957150         0.766822
 H         3.672987        -1.124271         3.451658
