19
Iteration:   873
 C         3.000624         2.044807         0.502591
 C         2.273830         0.917931         1.202320
 C         1.765736         0.488430         2.641200
 O         0.448796         0.108554         2.265471
 C         1.074440        -0.133723         0.821823
 C         0.128635        -0.024247        -0.363012
 C         2.010984        -1.315732         1.140315
 C         2.786799        -0.377677         1.978150
 O         3.996349        -0.494548         2.592427
 H         3.923403         2.382648         0.968194
 H         3.330862         1.627369        -0.428826
 H         2.282631         2.861794         0.068424
 H         2.011503         1.082429         3.412732
 H        -0.821740        -0.648509        -0.397737
 H        -0.105900         1.064010        -0.478022
 H         0.663770        -0.252555        -1.291166
 H         1.496240        -2.190649         1.588422
 H         2.592166        -1.682263         0.253782
 H         4.374434        -1.343130         2.220733
