19
Iteration:  4664charge 0 multiplicity 1
 C         3.035174         1.743872         0.219115
 C         2.448534         0.726051         1.051318
 C         1.887994         0.758389         2.438659
 O         0.511091         0.454235         2.230238
 C         1.055271        -0.065204         0.893994
 C        -0.024235        -0.166862        -0.263030
 C         1.797842        -1.327872         1.380206
 C         2.810163        -0.356699         2.105998
 O         4.057966        -0.568885         2.599667
 H         2.332105         2.386690        -0.217308
 H         3.622791         2.260247         0.929640
 H         3.695461         1.183902        -0.468448
 H         2.149222         1.513508         3.186577
 H        -0.550142        -1.079535        -0.094806
 H        -0.908574         0.606681        -0.382939
 H         0.327305        -0.319169        -1.269852
 H         1.069814        -2.029852         1.741394
 H         2.411042        -1.640228         0.560132
 H         3.992598        -0.855033         3.533842
