19
Iteration:  2595charge 0 multiplicity 1
 C         2.946022         1.735765         0.195947
 C         2.351388         0.771130         1.101981
 C         1.872066         0.706961         2.537446
 O         0.432487         0.389266         2.201891
 C         1.054353        -0.114912         0.936325
 C         0.176739         0.002862        -0.274134
 C         1.855972        -1.346910         1.291170
 C         2.804221        -0.418859         2.097361
 O         4.060588        -0.603743         2.615111
 H         3.768215         2.424801         0.488685
 H         3.260543         1.266038        -0.837027
 H         2.066382         2.361010        -0.154210
 H         2.039740         1.270243         3.502446
 H        -0.788592        -0.499547        -0.021811
 H         0.015950         1.056012        -0.521575
 H         0.571112        -0.498529        -1.184594
 H         1.397165        -2.099756         1.854884
 H         2.227532        -1.733071         0.383123
 H         4.193630        -0.225691         3.500131
