19
Iteration:   567
 C         2.897695         1.950968         0.412394
 C         2.364638         0.861994         1.131229
 C         1.848854         0.632977         2.560148
 O         0.466513         0.149963         2.274624
 C         1.093330        -0.098440         0.861711
 C         0.182528         0.041293        -0.344915
 C         1.936936        -1.372121         1.238544
 C         2.793690        -0.387124         1.952104
 O         3.938063        -0.551409         2.620990
 H         3.748370         2.372334         0.961878
 H         3.334716         1.594247        -0.536705
 H         2.149258         2.789780         0.201148
 H         2.106314         1.112364         3.509023
 H        -0.656066        -0.728669        -0.433968
 H        -0.073730         1.086528        -0.362837
 H         0.783664        -0.145799        -1.208678
 H         1.380988        -2.002054         1.899893
 H         2.327778        -1.980452         0.363175
 H         4.377008        -1.306447         2.261566
