19
Iteration:  3285charge 0 multiplicity 1
 C         3.301134         1.529272         0.274929
 C         2.306372         0.898784         1.186208
 C         1.706680         0.794116         2.585948
 O         0.375560         0.329470         2.175488
 C         1.043781        -0.085484         0.956508
 C         0.020256        -0.176744        -0.250978
 C         1.878272        -1.354930         1.255666
 C         2.763220        -0.351590         2.083169
 O         4.071302        -0.337937         2.466263
 H         4.332159         1.672853         0.688593
 H         3.385640         0.949176        -0.616041
 H         2.990492         2.559166         0.124353
 H         1.917560         1.285109         3.468716
 H        -0.928439        -0.481835         0.087387
 H        -0.074584         0.660826        -0.840930
 H         0.373333        -0.866923        -1.032414
 H         1.489395        -2.205619         1.871074
 H         2.316717        -1.715010         0.271434
 H         4.172067        -0.821880         3.322685
