19
Iteration:  3824
 C         2.893432         1.740329         0.143882
 C         2.428231         0.717232         1.026999
 C         1.868133         0.831821         2.432320
 O         0.513754         0.480213         2.192563
 C         0.991831        -0.186033         0.971490
 C         0.086453         0.050264        -0.274542
 C         1.791766        -1.423697         1.436961
 C         2.842569        -0.361935         2.072344
 O         4.102890        -0.659236         2.633355
 H         2.219022         2.059171        -0.633157
 H         3.299536         2.543869         0.780657
 H         3.775564         1.231602        -0.439484
 H         1.855992         1.451493         3.303139
 H        -0.892716        -0.373105        -0.120007
 H        -0.018703         1.031383        -0.510955
 H         0.435455        -0.368008        -1.159678
 H         1.426919        -2.022190         2.366238
 H         2.419968        -1.940040         0.766159
 H         4.156070        -1.236071         3.428881
