19
Iteration:  4359
 C         3.174432         1.557735         0.169712
 C         2.305882         0.822266         1.146652
 C         1.848715         0.755612         2.549992
 O         0.516737         0.382056         2.282003
 C         0.937102        -0.066549         0.841015
 C        -0.054863        -0.004095        -0.193061
 C         1.798160        -1.268657         1.304308
 C         2.769860        -0.313462         2.113829
 O         4.155547        -0.640163         2.481759
 H         4.126024         1.103857         0.012706
 H         2.674026         1.527705        -0.756523
 H         3.515007         2.646124         0.346968
 H         2.118104         1.512527         3.294675
 H        -0.870053        -0.556600         0.127241
 H        -0.350147         0.996109        -0.505514
 H         0.260047        -0.509905        -1.064402
 H         1.231479        -2.125691         1.883598
 H         2.431458        -1.739664         0.506539
 H         4.125151        -0.589831         3.457514
