19
Iteration:  4046charge 0 multiplicity 1
 C         3.014246         1.681171         0.085933
 C         2.364621         0.661831         1.053157
 C         1.968715         0.842378         2.519336
 O         0.575747         0.424169         2.246661
 C         1.020974        -0.102972         0.902855
 C         0.040941         0.102223        -0.150994
 C         1.821245        -1.419715         1.354200
 C         2.757777        -0.456458         2.061360
 O         3.993381        -0.560763         2.565906
 H         3.983950         1.363245        -0.374853
 H         2.409579         1.987487        -0.796911
 H         3.131832         2.601518         0.683274
 H         2.213908         1.318210         3.454187
 H        -0.925606        -0.297513         0.144621
 H        -0.186843         1.151773        -0.402920
 H         0.316713        -0.517678        -0.938094
 H         1.260751        -2.123082         2.123445
 H         2.260994        -2.060310         0.470337
 H         3.940031        -1.009782         3.435307
