19
Iteration:  3877charge 0 multiplicity 1
 C         3.226763         1.555760         0.176653
 C         2.319675         0.836839         1.151587
 C         1.900121         0.797734         2.558410
 O         0.437024         0.399114         2.232786
 C         1.005346        -0.049204         0.960113
 C        -0.090477        -0.113751        -0.211666
 C         1.858977        -1.293327         1.305880
 C         2.803119        -0.363164         1.998419
 O         4.069850        -0.562879         2.536886
 H         2.650141         1.698601        -0.752367
 H         3.461157         2.577835         0.501102
 H         4.195861         1.000646         0.052310
 H         1.832950         1.565944         3.321571
 H        -1.058943        -0.545922        -0.114793
 H        -0.266067         0.897916        -0.473096
 H         0.318949        -0.588760        -1.151743
 H         1.386103        -2.212006         1.802452
 H         2.306424        -1.686276         0.427523
 H         4.149789        -0.606723         3.513249
