19
Iteration:  1449charge 0 multiplicity 1
 C         3.068970         1.905144         0.290714
 C         2.274948         0.895115         1.010540
 C         1.786291         0.713281         2.564775
 O         0.525589         0.173104         2.184347
 C         1.083845        -0.154834         0.838990
 C         0.059559        -0.129338        -0.234233
 C         1.930254        -1.303357         1.323604
 C         2.745752        -0.243643         2.049331
 O         3.975543        -0.586592         2.674835
 H         3.918010         2.084247         0.996476
 H         3.679206         1.468945        -0.626269
 H         2.552808         2.761288         0.004830
 H         1.949649         1.223992         3.510489
 H        -0.943103        -0.299062         0.209091
 H         0.113579         0.862907        -0.692168
 H         0.117800        -0.952090        -0.999294
 H         1.374046        -2.002241         1.910443
 H         2.504457        -1.788409         0.465246
 H         4.681729        -1.005999         2.066598
