19
Iteration:  2574charge 0 multiplicity 1
 C         2.801292         1.770157         0.163958
 C         2.333524         0.801456         1.122305
 C         1.860960         0.759663         2.585074
 O         0.568537         0.404615         2.264950
 C         1.069009        -0.083339         0.926416
 C         0.259732         0.006404        -0.329304
 C         1.879042        -1.450244         1.323423
 C         2.777728        -0.370189         1.977764
 O         3.968706        -0.673422         2.633267
 H         3.739377         2.311958         0.418648
 H         3.087838         1.325638        -0.889635
 H         2.051292         2.542468        -0.271128
 H         2.152849         1.409711         3.489587
 H        -0.703057        -0.564545        -0.049183
 H         0.090215         1.061477        -0.653280
 H         0.788605        -0.573818        -1.153967
 H         1.441204        -2.117246         2.016153
 H         2.505328        -1.865832         0.593497
 H         3.843923        -0.512147         3.607938
