19
Iteration:  4991charge 0 multiplicity 1
 C         3.093054         1.840238         0.237112
 C         2.389123         0.691465         1.022209
 C         1.848441         0.858377         2.376725
 O         0.495900         0.453311         2.096695
 C         1.055920        -0.218552         0.859063
 C         0.046750        -0.320438        -0.264806
 C         1.779798        -1.414689         1.445492
 C         2.724021        -0.343041         2.148382
 O         4.096892        -0.448240         2.669908
 H         2.473594         2.224172        -0.553233
 H         3.191441         2.632661         1.027702
 H         4.136733         1.668698        -0.177162
 H         2.013077         1.610319         3.152789
 H        -0.631231        -1.097742         0.116752
 H        -0.472868         0.764091        -0.171031
 H         0.473457        -0.639389        -1.208309
 H         1.073585        -2.002601         2.017482
 H         2.375949        -1.812635         0.712630
 H         4.008585        -0.619266         3.630278
