19
Iteration:  3768
 C         3.069131         1.751264         0.206842
 C         2.362850         0.835343         1.073834
 C         1.906428         0.741247         2.520431
 O         0.480509         0.562378         2.234213
 C         1.013071        -0.045685         0.926604
 C         0.114693        -0.248147        -0.264247
 C         1.714452        -1.360839         1.349601
 C         2.763842        -0.378595         2.037541
 O         4.071122        -0.630780         2.562853
 H         2.628048         2.775953         0.243715
 H         4.156537         1.964913         0.349690
 H         3.016263         1.342781        -0.861331
 H         2.234099         1.461370         3.354872
 H        -0.396998        -1.123052         0.068225
 H        -0.591828         0.478463        -0.440056
 H         0.745870        -0.541605        -1.098240
 H         1.283822        -2.148524         2.085316
 H         2.121185        -1.926983         0.522855
 H         4.010980        -0.786599         3.524364
