19
Iteration:  2768charge 0 multiplicity 1
 C         2.799944         1.798115         0.090872
 C         2.470562         0.715977         1.145052
 C         1.861645         0.674821         2.497795
 O         0.501947         0.406165         2.196416
 C         1.092601        -0.117352         0.949666
 C         0.190055         0.079022        -0.239737
 C         1.807831        -1.414080         1.293391
 C         2.817953        -0.437530         2.099364
 O         4.009583        -0.546625         2.660220
 H         3.791727         2.355844         0.315550
 H         3.012616         1.326511        -0.855136
 H         2.079877         2.479826        -0.191604
 H         2.090971         1.227023         3.504152
 H        -0.748213        -0.341907        -0.129774
 H        -0.049372         1.069505        -0.538880
 H         0.720788        -0.506361        -0.983341
 H         1.140534        -2.315972         1.789553
 H         2.597431        -1.733542         0.512990
 H         4.062735        -0.972665         3.549545
