19
Iteration:  3400charge 0 multiplicity 1
 C         2.876123         1.892744         0.114170
 C         2.394141         0.835052         1.046219
 C         1.928231         0.750614         2.455828
 O         0.537131         0.526561         2.214039
 C         1.010737        -0.077327         0.911281
 C         0.168327        -0.260590        -0.254794
 C         1.816791        -1.359471         1.370352
 C         2.789632        -0.400752         2.061092
 O         4.026238        -0.740363         2.725866
 H         3.452548         2.515811         0.737003
 H         3.609347         1.450421        -0.582526
 H         2.095791         2.471001        -0.376510
 H         2.237221         1.343761         3.289001
 H        -0.274568        -1.268403        -0.189634
 H        -0.584908         0.493393        -0.587030
 H         0.909827        -0.244106        -1.016503
 H         1.025874        -1.938850         1.912330
 H         2.262716        -1.757543         0.470726
 H         3.816919        -0.281780         3.570403
