19
Iteration:  4423charge 0 multiplicity 1
 C         2.897561         1.782591         0.152799
 C         2.407243         0.723257         1.042391
 C         1.921811         0.805105         2.490728
 O         0.537812         0.521394         2.187249
 C         1.060559        -0.147757         0.887362
 C         0.027753         0.048126        -0.268221
 C         1.711945        -1.405008         1.462014
 C         2.786436        -0.394214         2.061025
 O         4.188048        -0.737319         2.607939
 H         3.714233         1.572474        -0.507733
 H         1.995204         1.977364        -0.394403
 H         3.071702         2.734874         0.733523
 H         2.107677         1.481183         3.343602
 H        -0.833875        -0.473075         0.000944
 H        -0.190146         1.093354        -0.551255
 H         0.543765        -0.536702        -1.027207
 H         1.202545        -1.930639         2.257771
 H         2.332988        -2.063319         0.891150
 H         4.061193        -1.417400         3.301011
