19
Iteration:  3197charge 0 multiplicity 1
 C         2.913518         1.865366         0.176645
 C         2.437980         0.785989         1.085531
 C         1.890441         0.756495         2.516790
 O         0.549014         0.477522         2.161929
 C         1.096819        -0.127260         0.860972
 C         0.115348        -0.183848        -0.275270
 C         1.762622        -1.342002         1.388383
 C         2.804861        -0.352886         2.068747
 O         4.014015        -0.673530         2.674239
 H         3.420048         2.806096         0.560087
 H         3.450208         1.476473        -0.658380
 H         1.945392         2.212811        -0.204897
 H         2.116168         1.485173         3.334484
 H        -0.423599        -1.126572        -0.180979
 H        -0.516322         0.689353        -0.279893
 H         0.668369        -0.297023        -1.237696
 H         1.226456        -2.101170         2.046051
 H         2.210632        -1.915735         0.491297
 H         4.010678        -0.985341         3.601924
