19
Iteration:  3166charge 0 multiplicity 1
 C         2.875516         1.763451         0.140829
 C         2.321794         0.833883         1.076937
 C         1.788100         0.840961         2.517264
 O         0.449396         0.458926         2.183860
 C         1.101898        -0.156668         0.904749
 C         0.246730        -0.066475        -0.264895
 C         1.916355        -1.382316         1.443234
 C         2.815071        -0.312615         2.083078
 O         4.028160        -0.759839         2.608208
 H         3.721310         2.391454         0.376511
 H         3.110651         1.270028        -0.813629
 H         2.045352         2.573901        -0.070818
 H         2.005620         1.571549         3.297904
 H        -0.544226        -0.894557         0.015805
 H        -0.220877         0.906764        -0.460238
 H         0.875155        -0.325087        -1.243717
 H         1.576291        -2.241210         2.098013
 H         2.368248        -1.744246         0.473413
 H         4.004458        -1.009781         3.552639
