19
Iteration:  2172
 C         2.873721         1.823414         0.221420
 C         2.434968         0.717779         1.147439
 C         1.760615         0.901718         2.525562
 O         0.467189         0.418180         2.146808
 C         1.095771        -0.128499         0.925720
 C         0.224388        -0.136753        -0.350063
 C         1.792229        -1.417621         1.428911
 C         2.798356        -0.370759         2.100197
 O         4.118566        -0.602770         2.540678
 H         3.678769         2.367442         0.560898
 H         3.018427         1.442573        -0.823303
 H         2.124303         2.606314         0.198475
 H         1.673009         1.089257         3.687495
 H        -0.451868        -1.013133        -0.368480
 H        -0.430871         0.709928        -0.380664
 H         0.813973        -0.067182        -1.275004
 H         1.254371        -2.184235         1.953291
 H         2.450548        -1.838136         0.722240
 H         4.111653        -0.900159         3.443366
