19
Iteration:   178charge 0 multiplicity 1
 C         2.949719         2.003803         0.494574
 C         2.288539         0.884898         1.260224
 C         1.759625         0.496810         2.610710
 O         0.352660         0.079936         2.166012
 C         1.072370        -0.058616         0.869311
 C         0.057702         0.091935        -0.296174
 C         2.067856        -1.325275         1.089322
 C         2.855122        -0.371142         1.970671
 O         4.091063        -0.640631         2.603789
 H         3.853050         2.339565         0.962013
 H         3.192017         1.623084        -0.483355
 H         2.188788         2.866540         0.332451
 H         1.735439         1.091709         3.604127
 H        -0.945036        -0.298062         0.001012
 H        -0.142622         1.099844        -0.596847
 H         0.468558        -0.418610        -1.115406
 H         1.824620        -2.323444         1.444516
 H         2.638119        -1.401534         0.211204
 H         4.839249        -0.366016         2.058506
