19
Iteration:   229
 C         3.062443         2.192682         0.732537
 C         2.304682         0.875333         1.109670
 C         1.842541         0.604371         2.463607
 O         0.508798         0.154628         2.142324
 C         1.002726        -0.127120         0.895109
 C        -0.058854        -0.173306        -0.300601
 C         1.970071        -1.323005         1.091515
 C         2.827061        -0.346212         1.860597
 O         4.032642        -0.630815         2.662637
 H         3.768538         2.368526         1.559375
 H         3.624416         2.051932        -0.275256
 H         2.407190         3.004586         0.640961
 H         2.032691         1.200816         3.426982
 H        -0.800276        -1.021661        -0.245663
 H        -0.685329         0.734381        -0.268096
 H         0.494926        -0.182831        -1.251117
 H         1.549591        -2.072478         1.778302
 H         2.269533        -1.858620         0.118014
 H         4.634544        -1.118628         2.118774
