19
Iteration:  4393
 C         2.989751         1.706390         0.107328
 C         2.416158         0.708179         1.048620
 C         1.924074         0.747935         2.488617
 O         0.548833         0.470509         2.249792
 C         1.002777        -0.137486         0.978480
 C         0.156740         0.079270        -0.126934
 C         1.785012        -1.419176         1.373160
 C         2.712630        -0.411119         1.963366
 O         3.996733        -0.577271         2.548176
 H         3.893400         1.391668        -0.371971
 H         2.242486         1.781868        -0.632723
 H         2.987604         2.738193         0.647484
 H         2.165742         1.349618         3.380087
 H        -0.844331        -0.170333         0.157755
 H         0.168258         1.113228        -0.518866
 H         0.564110        -0.625330        -0.771902
 H         1.325373        -2.189395         2.143648
 H         2.339179        -1.950198         0.537547
 H         3.953876        -1.088289         3.378147
