19
Iteration:  3982
 C         3.013413         1.748483         0.100884
 C         2.396472         0.767077         1.069915
 C         1.900664         0.870837         2.549712
 O         0.508182         0.446262         2.215899
 C         1.064506        -0.108066         0.976476
 C         0.105347        -0.080605        -0.201238
 C         1.812566        -1.300545         1.396347
 C         2.741922        -0.414395         2.113374
 O         3.986253        -0.737248         2.475395
 H         3.040472         1.228092        -0.929032
 H         2.481898         2.751714         0.039394
 H         4.038854         1.922146         0.374703
 H         2.329712         1.517257         3.314942
 H        -0.736434        -0.650583         0.104090
 H        -0.309423         0.952967        -0.361562
 H         0.490833        -0.492290        -1.082392
 H         1.256782        -1.872759         2.133485
 H         2.344853        -1.806446         0.538303
 H         4.100823        -0.762808         3.451065
