19
Iteration:  2308
 C         3.086038         1.922468         0.305003
 C         2.282977         0.918966         1.004584
 C         1.855813         0.708936         2.488695
 O         0.527736         0.372087         2.193077
 C         1.075915        -0.106592         0.907842
 C         0.084693        -0.245136        -0.299733
 C         1.813882        -1.371660         1.432115
 C         2.730130        -0.380453         2.002825
 O         4.011150        -0.658030         2.615858
 H         4.013656         2.224924         0.940191
 H         3.406764         1.593010        -0.731770
 H         2.484735         2.788003         0.218619
 H         2.127352         1.534943         3.115889
 H        -0.756251        -1.004553        -0.096384
 H        -0.529077         0.694007        -0.653740
 H         0.800977        -0.582235        -1.128916
 H         1.405480        -2.192171         2.117422
 H         2.443891        -1.966880         0.598307
 H         4.191704         0.050217         3.291881
