19
Iteration:  4520charge 0 multiplicity 1
 C         3.354995         1.569006         0.258378
 C         2.357902         0.700247         1.073451
 C         1.804096         0.817922         2.520937
 O         0.435944         0.341516         2.159074
 C         1.002218        -0.153065         0.940945
 C        -0.031633        -0.008964        -0.115059
 C         1.830052        -1.423749         1.351063
 C         2.729555        -0.304943         2.099855
 O         4.033229        -0.380144         2.409791
 H         2.929704         1.457921        -0.768930
 H         3.129473         2.654433         0.514537
 H         4.365697         1.249768         0.185756
 H         1.939961         1.486654         3.386676
 H        -0.867712        -0.609618         0.292182
 H        -0.290021         1.099310         0.056459
 H         0.289531        -0.267824        -1.193229
 H         1.252885        -2.239776         1.774968
 H         2.417020        -1.780152         0.540668
 H         4.126304        -0.857242         3.258470
