19
Iteration:  2958charge 0 multiplicity 1
 C         2.832529         1.741720         0.114633
 C         2.372276         0.716456         1.112568
 C         1.866805         0.733460         2.540581
 O         0.483791         0.366366         2.241989
 C         1.111152        -0.082716         0.883900
 C         0.208645        -0.008046        -0.309114
 C         1.842153        -1.340764         1.344230
 C         2.785522        -0.396866         2.073649
 O         4.028448        -0.566377         2.664926
 H         3.828824         2.075976         0.512085
 H         3.177072         1.061048        -0.848871
 H         2.193600         2.667077        -0.116487
 H         2.354289         1.333002         3.400328
 H        -0.815101        -0.348101        -0.142561
 H         0.124089         1.050092        -0.540352
 H         0.610053        -0.467491        -1.213449
 H         1.218185        -2.070880         1.932049
 H         2.252303        -1.801703         0.467244
 H         4.000835        -0.731350         3.630084
