19
Iteration:  4100
 C         3.297023         1.639006         0.323910
 C         2.336893         0.793385         1.115450
 C         1.879025         0.850584         2.532482
 O         0.532777         0.493466         2.269994
 C         0.943665        -0.051662         0.897532
 C         0.034645        -0.145322        -0.136351
 C         1.725260        -1.325699         1.406519
 C         2.654466        -0.426948         2.058606
 O         4.028756        -0.598053         2.243372
 H         4.335128         1.358597         0.586296
 H         2.995314         1.397623        -0.719651
 H         3.325243         2.758649         0.432665
 H         2.199657         1.602784         3.225120
 H        -0.537315        -1.105212         0.220434
 H        -0.707471         0.719463        -0.312067
 H         0.458040        -0.421305        -1.107148
 H         1.317700        -2.194406         2.079868
 H         2.405360        -1.665266         0.519729
 H         4.134833        -0.841658         3.186073
