19
Iteration:  3037charge 0 multiplicity 1
 C         3.221491         1.767861         0.326373
 C         2.359602         0.821604         1.132880
 C         1.799889         0.714597         2.509878
 O         0.472809         0.501472         2.198407
 C         0.960085        -0.078887         0.907194
 C         0.042758        -0.295222        -0.273762
 C         1.789405        -1.304187         1.338545
 C         2.774916        -0.352924         1.980080
 O         4.078707        -0.538645         2.552013
 H         3.932416         2.407712         0.822801
 H         3.848157         1.121542        -0.517203
 H         2.409570         2.521503        -0.092350
 H         2.172475         1.188850         3.362682
 H        -0.483527        -1.210320        -0.005739
 H        -0.661420         0.499577        -0.405223
 H         0.486376        -0.518253        -1.279426
 H         1.178696        -2.117372         1.840707
 H         2.237594        -1.749753         0.444958
 H         4.045595        -0.883343         3.477568
