19
Iteration:  4952
 C         3.193456         1.612503         0.166615
 C         2.273020         0.855903         1.061875
 C         1.716214         0.811819         2.529357
 O         0.391922         0.355899         2.193175
 C         1.084958        -0.199652         0.897534
 C         0.136906        -0.185705        -0.259888
 C         1.896251        -1.402698         1.418147
 C         2.736407        -0.247137         2.096028
 O         4.049162        -0.398049         2.562011
 H         2.994175         1.473293        -0.923688
 H         3.118628         2.650257         0.390798
 H         4.241835         1.340845         0.348876
 H         1.907066         1.368793         3.473556
 H        -0.823668        -0.622005         0.025538
 H        -0.074626         0.740061        -0.586145
 H         0.465321        -0.666719        -1.203753
 H         1.475364        -2.199670         2.092847
 H         2.496004        -1.953450         0.552248
 H         4.057465        -0.460887         3.540107
