19
Iteration:  2187
 C         2.918032         1.716745         0.251196
 C         2.353181         0.756906         1.197892
 C         1.765698         0.772421         2.543129
 O         0.419200         0.382114         2.072092
 C         1.069141        -0.100863         0.869885
 C         0.191771        -0.048206        -0.283885
 C         1.901971        -1.402107         1.437225
 C         2.782896        -0.373833         2.105774
 O         4.129031        -0.503393         2.545157
 H         3.890845         2.221042         0.595282
 H         3.183763         1.223913        -0.713194
 H         2.128729         2.431452         0.142400
 H         2.027761         1.553825         3.196199
 H        -0.501508        -0.950837        -0.172303
 H        -0.485039         0.864306        -0.322761
 H         0.830891        -0.098670        -1.196550
 H         1.275557        -2.013573         2.159071
 H         2.354676        -1.945862         0.514571
 H         4.100791        -1.265037         3.176366
