19
Iteration:  4936
 C         3.189039         1.564773         0.142540
 C         2.343944         0.741398         1.179291
 C         1.760361         0.800004         2.545208
 O         0.490599         0.241760         2.196398
 C         1.026878        -0.082058         0.932723
 C         0.156173        -0.185546        -0.293787
 C         1.824378        -1.284546         1.349630
 C         2.693708        -0.317506         2.195111
 O         4.030956        -0.286620         2.521119
 H         2.926051         1.128423        -0.819760
 H         2.860876         2.652820        -0.069180
 H         4.273004         1.422399         0.454756
 H         1.708220         1.649918         3.206109
 H        -0.863009        -0.607835        -0.085084
 H        -0.107598         0.916457        -0.804020
 H         0.650102        -0.820339        -1.023634
 H         1.199050        -2.137710         1.672305
 H         2.469157        -1.738607         0.662117
 H         3.973532        -0.650580         3.433995
