19
Iteration:   236
 C         3.048312         2.143378         0.734679
 C         2.287277         0.974961         1.107217
 C         1.812863         0.669285         2.476333
 O         0.534647         0.150702         2.159332
 C         0.987126        -0.173265         0.817153
 C        -0.050698        -0.199993        -0.268440
 C         1.922199        -1.336245         1.171901
 C         2.913018        -0.315015         1.835624
 O         4.011653        -0.688691         2.626856
 H         3.740446         2.366605         1.587758
 H         3.622334         2.056827        -0.147056
 H         2.434645         3.075430         0.676725
 H         1.751917         1.124099         3.388093
 H        -0.654472        -1.058022        -0.454052
 H        -0.521911         0.822055        -0.267452
 H         0.601047        -0.059147        -1.212623
 H         1.617474        -2.200233         1.825122
 H         2.243584        -1.709754         0.158238
 H         4.747913        -1.050130         2.082998
