19
Iteration:   910
 C         2.879149         1.928599         0.448513
 C         2.305944         0.813533         1.335669
 C         1.637994         0.554283         2.611084
 O         0.355968         0.224658         2.167500
 C         1.125025        -0.212989         0.823595
 C         0.221961         0.092365        -0.303204
 C         2.013616        -1.368370         1.091922
 C         2.784112        -0.423430         2.069268
 O         4.127281        -0.559260         2.554212
 H         3.694051         2.530177         0.892639
 H         3.289286         1.329780        -0.469759
 H         2.217118         2.700889         0.170107
 H         1.863485         1.379134         3.469687
 H        -0.397616        -0.729803        -0.347899
 H        -0.332652         0.975524        -0.037787
 H         0.810503         0.291767        -1.229109
 H         1.518779        -2.193104         1.618277
 H         2.612878        -1.557712         0.261349
 H         4.739532        -0.069775         1.922121
