19
Iteration:  2913charge 0 multiplicity 1
 C         3.184881         1.657468         0.249212
 C         2.290275         0.853710         1.121923
 C         1.786467         0.754131         2.529485
 O         0.408616         0.381169         2.179183
 C         1.004013        -0.140720         0.874149
 C         0.030815        -0.117884        -0.226947
 C         1.900558        -1.295921         1.300817
 C         2.778574        -0.316282         2.053572
 O         4.118899        -0.539869         2.553963
 H         4.192796         1.869956         0.756507
 H         3.443547         1.164188        -0.804983
 H         2.750888         2.679817         0.257123
 H         1.797361         1.340352         3.485195
 H        -0.767869        -0.727390         0.212918
 H        -0.387077         0.879727        -0.417222
 H         0.341570        -0.585459        -1.111533
 H         1.280640        -2.024484         1.886346
 H         2.451261        -1.764783         0.508923
 H         4.116888        -1.092464         3.375823
