19
Iteration:  1340charge 0 multiplicity 1
 C         2.929366         1.857060         0.322423
 C         2.325636         0.804982         1.172573
 C         1.739095         0.770504         2.518039
 O         0.443111         0.309168         2.143205
 C         1.124290        -0.104371         0.921022
 C         0.130406        -0.073371        -0.295413
 C         1.972457        -1.382646         1.322998
 C         2.775566        -0.326987         2.047722
 O         4.071865        -0.602483         2.615398
 H         3.689517         2.344307         0.935048
 H         3.295023         1.549086        -0.713313
 H         2.191630         2.551637         0.167099
 H         1.988548         1.258738         3.443407
 H        -0.284498        -1.068653        -0.505995
 H        -0.695612         0.610318        -0.193565
 H         0.636296         0.197938        -1.221485
 H         1.439176        -2.148583         1.768336
 H         2.643222        -1.644388         0.460879
 H         4.262703        -1.569532         2.327746
