19
Iteration:  3987charge 0 multiplicity 1
 C         2.990973         1.749609         0.082404
 C         2.338630         0.754890         1.120580
 C         1.938570         0.841089         2.543482
 O         0.497368         0.456719         2.221830
 C         1.079068        -0.116161         0.926392
 C         0.048044        -0.048418        -0.221292
 C         1.825644        -1.273479         1.399723
 C         2.821301        -0.382041         2.126988
 O         4.004108        -0.770674         2.508818
 H         3.090548         1.193261        -0.814752
 H         2.376649         2.603767        -0.151499
 H         4.070750         2.051415         0.247198
 H         2.155873         1.536078         3.390079
 H        -0.817122        -0.689925         0.164073
 H        -0.134929         0.996514        -0.495898
 H         0.552305        -0.489050        -1.209152
 H         1.320346        -1.978408         2.112446
 H         2.199064        -1.818514         0.565788
 H         4.025650        -0.762102         3.474042
