19
Iteration:   549charge 0 multiplicity 1
 C         2.875240         1.907329         0.301754
 C         2.309080         0.821057         1.232940
 C         1.751682         0.567937         2.605468
 O         0.449703         0.286529         2.135041
 C         1.116055        -0.102747         0.882598
 C         0.155036         0.107292        -0.232296
 C         2.000855        -1.396244         1.090707
 C         2.795008        -0.406906         2.005440
 O         4.060802        -0.574152         2.725892
 H         3.789806         2.347906         0.695242
 H         3.203209         1.444783        -0.723342
 H         2.095939         2.579664         0.184539
 H         1.801541         1.096710         3.641324
 H        -0.645399        -0.615993        -0.069751
 H        -0.363319         1.094305        -0.236256
 H         0.587293        -0.201431        -1.205954
 H         1.603567        -2.385571         1.475757
 H         2.569911        -1.462164         0.143981
 H         4.521273        -1.342219         2.401024
