19
Iteration:   812
 C         2.879161         2.157943         0.612451
 C         2.344624         0.810888         1.200908
 C         1.707894         0.625717         2.529081
 O         0.485625         0.390738         2.041630
 C         1.157010        -0.106270         0.784204
 C         0.011915        -0.148739        -0.243299
 C         1.984862        -1.468752         1.074920
 C         2.787917        -0.422243         2.090550
 O         4.124250        -0.708662         2.640635
 H         3.742193         2.528719         1.180803
 H         3.248288         1.976177        -0.461075
 H         2.202617         2.907167         0.620317
 H         1.875695         1.134141         3.543351
 H        -0.673392        -0.889476         0.111416
 H        -0.517509         0.798351        -0.381218
 H         0.567739        -0.542814        -1.132746
 H         1.415702        -2.285927         1.568417
 H         2.524563        -1.752688         0.180436
 H         4.744575        -0.250728         1.980101
