19
Iteration:  4578
 C         3.063952         1.660459         0.101852
 C         2.376210         0.829408         1.147982
 C         1.814819         0.728485         2.559927
 O         0.426757         0.475315         2.252388
 C         1.017841        -0.061086         1.007186
 C         0.181228        -0.099757        -0.231701
 C         1.866212        -1.395031         1.373989
 C         2.747048        -0.384300         2.035764
 O         4.038174        -0.580261         2.476059
 H         2.431306         1.756871        -0.744233
 H         3.115752         2.652844         0.441653
 H         4.158330         1.462975        -0.254043
 H         1.969389         1.251651         3.503441
 H        -0.736130        -0.519512         0.175717
 H         0.051003         0.973842        -0.714986
 H         0.582622        -0.788935        -0.964389
 H         1.188194        -2.042842         1.815469
 H         2.161098        -1.834307         0.430268
 H         4.198803        -0.640272         3.429106
