19
Iteration:   108charge 0 multiplicity 1
 C         2.781752         2.023906         0.576547
 C         2.286421         0.803675         1.313915
 C         1.758262         0.489189         2.679440
 O         0.366348         0.325632         2.121108
 C         1.041349        -0.115861         0.825886
 C         0.163736         0.054575        -0.382830
 C         1.961213        -1.411448         1.160796
 C         2.857386        -0.454182         1.986493
 O         4.256984        -0.673450         2.498514
 H         3.669385         2.571434         1.053844
 H         3.217643         1.647050        -0.480619
 H         2.004480         2.676627         0.390808
 H         1.982582         1.082763         3.506696
 H        -0.487502        -0.781226        -0.492923
 H        -0.549278         0.879293        -0.143268
 H         0.875364         0.379387        -1.198496
 H         1.498923        -2.317259         1.558164
 H         2.413871        -1.593966         0.130070
 H         4.568621         0.252678         2.552054
