19
Iteration:  4499
 C         3.239904         1.623129         0.290772
 C         2.310683         0.824570         1.084525
 C         1.799210         0.741656         2.529920
 O         0.454563         0.497638         2.207399
 C         0.971849        -0.084919         0.916187
 C        -0.089901        -0.131271        -0.177665
 C         1.886664        -1.400011         1.364212
 C         2.763747        -0.354514         1.922887
 O         4.145480        -0.510774         2.506604
 H         3.146335         1.321758        -0.776738
 H         3.261393         2.726320         0.323144
 H         4.181922         1.082337         0.515395
 H         1.985453         1.330390         3.439513
 H        -0.734578        -0.956025         0.089955
 H        -0.574450         0.920466        -0.234042
 H         0.426951        -0.332955        -1.171215
 H         1.258570        -1.925901         1.975993
 H         2.161873        -1.911539         0.498619
 H         4.068531        -0.730375         3.451221
