19
Iteration:  4097charge 0 multiplicity 1
 C         3.284988         1.632255         0.306992
 C         2.345725         0.793151         1.135152
 C         1.840432         0.837422         2.505962
 O         0.545885         0.486733         2.250865
 C         0.948359        -0.027996         0.909102
 C         0.037545        -0.129556        -0.127224
 C         1.734231        -1.361144         1.434046
 C         2.675375        -0.409887         2.060196
 O         4.030151        -0.600678         2.244194
 H         4.298932         1.338455         0.505768
 H         3.011270         1.480285        -0.716775
 H         3.322225         2.811121         0.474606
 H         2.257252         1.506638         3.258869
 H        -0.623472        -1.080796         0.215869
 H        -0.683149         0.740911        -0.269402
 H         0.434715        -0.438017        -1.208800
 H         1.336813        -2.159438         1.993444
 H         2.367755        -1.626014         0.637602
 H         4.025423        -0.826079         3.200017
