19
Iteration:  1715
 C         3.062895         1.846854         0.251584
 C         2.230537         0.837395         1.096513
 C         1.782707         0.803881         2.551216
 O         0.455653         0.297691         2.242302
 C         1.001790        -0.203340         0.892036
 C         0.175382        -0.093199        -0.307075
 C         1.944480        -1.380844         1.459654
 C         2.748162        -0.296638         1.977752
 O         4.087331        -0.635390         2.515621
 H         3.922927         2.181105         0.788976
 H         3.436253         1.316389        -0.666013
 H         2.518216         2.652638        -0.149473
 H         1.916139         1.726399         2.977573
 H        -0.585347        -0.925249        -0.288977
 H        -0.284403         0.898078        -0.225354
 H         0.759356        -0.282558        -1.196898
 H         1.307142        -2.051095         2.120877
 H         2.471888        -1.814752         0.647252
 H         3.865337        -0.545444         3.515841
