19
Iteration:  1992
 C         3.001613         1.772400         0.301218
 C         2.276901         0.748439         1.168934
 C         1.754481         0.813940         2.536705
 O         0.459112         0.331396         2.131236
 C         1.088271        -0.128757         0.936573
 C         0.193023        -0.107888        -0.351918
 C         1.953845        -1.352270         1.491417
 C         2.759168        -0.318854         2.063867
 O         4.037345        -0.556130         2.485172
 H         3.987242         2.200710         0.705904
 H         3.086304         1.310812        -0.653803
 H         2.249676         2.648921         0.068018
 H         1.901174         1.612846         3.124881
 H        -0.538174        -0.894621        -0.483230
 H        -0.361172         0.792550         0.002457
 H         0.613088         0.086157        -1.343971
 H         1.443547        -2.148881         1.956989
 H         2.505518        -1.860787         0.659644
 H         4.209492        -1.347410         3.050740
