19
Iteration:  1940charge 0 multiplicity 1
 C         2.922023         1.805694         0.276723
 C         2.358836         0.798859         1.167028
 C         1.849222         0.732332         2.549991
 O         0.535338         0.428296         2.148997
 C         1.101323        -0.088002         0.877344
 C         0.091425        -0.149887        -0.258300
 C         1.918796        -1.442108         1.219301
 C         2.764230        -0.353882         1.974951
 O         3.994427        -0.581691         2.678645
 H         3.724011         2.391741         0.735948
 H         3.183871         1.381710        -0.649717
 H         2.109635         2.588409         0.173737
 H         2.162057         1.164000         3.425196
 H        -0.510717        -1.038841        -0.036921
 H        -0.577576         0.732248        -0.510216
 H         0.675167        -0.295542        -1.172386
 H         1.473617        -2.177770         1.936309
 H         2.505821        -1.961895         0.408861
 H         4.077666        -0.038529         3.472392
