19
Iteration:  3874
 C         3.228625         1.564527         0.181359
 C         2.322123         0.851344         1.138116
 C         1.884804         0.795947         2.559639
 O         0.451353         0.398447         2.234008
 C         1.007957        -0.060154         0.949647
 C        -0.077766        -0.107304        -0.195655
 C         1.842780        -1.315375         1.321365
 C         2.803937        -0.392454         1.992368
 O         4.070192        -0.553956         2.548990
 H         2.572536         1.596130        -0.740482
 H         3.434226         2.597220         0.464421
 H         4.077100         1.067623        -0.129459
 H         1.922556         1.514139         3.446666
 H        -1.070219        -0.585946        -0.045683
 H        -0.174342         0.991434        -0.627380
 H         0.403660        -0.583540        -1.170248
 H         1.312120        -2.084516         1.769906
 H         2.298370        -1.571274         0.336871
 H         4.099316        -0.561654         3.521376
