19
Iteration:  3105
 C         3.195231         1.621957         0.331777
 C         2.312461         0.739998         1.105955
 C         1.796106         0.738981         2.500140
 O         0.443627         0.381275         2.108090
 C         1.016410        -0.160090         0.905748
 C         0.002042        -0.019101        -0.215649
 C         1.905259        -1.448025         1.365529
 C         2.739299        -0.338334         2.047801
 O         4.084504        -0.321732         2.514629
 H         4.230284         1.635690         0.788560
 H         3.347258         1.072785        -0.678194
 H         2.832557         2.664220         0.373896
 H         1.936170         1.141956         3.458682
 H        -0.845426        -0.587158         0.130172
 H        -0.208689         0.978280        -0.629987
 H         0.288386        -0.623188        -1.046556
 H         1.526694        -2.240191         2.064581
 H         2.225354        -1.896169         0.406984
 H         3.982176        -0.783364         3.376401
