19
Iteration:  4188charge 0 multiplicity 1
 C         2.975695         1.695804         0.099641
 C         2.338704         0.739960         1.075870
 C         1.894423         0.794445         2.494334
 O         0.529034         0.447596         2.274273
 C         1.041643        -0.104318         0.919012
 C        -0.006939         0.152554        -0.099113
 C         1.775495        -1.374033         1.342564
 C         2.833437        -0.514326         1.933229
 O         4.138782        -0.717995         2.603903
 H         3.416757         2.591216         0.616045
 H         3.892285         1.340527        -0.485137
 H         2.207404         1.982595        -0.640321
 H         2.213595         1.518003         3.247530
 H        -1.154677        -0.155425         0.054200
 H        -0.070949         1.311609        -0.370287
 H         0.214992        -0.360686        -1.048442
 H         1.380733        -2.128706         1.989998
 H         2.520921        -1.743777         0.582452
 H         3.839023        -0.790231         3.529561
