19
Iteration:  1542charge 0 multiplicity 1
 C         3.031550         1.875162         0.217518
 C         2.219266         0.815392         1.044176
 C         1.751035         0.797296         2.461486
 O         0.449521         0.276754         2.218080
 C         1.050849        -0.136054         1.007810
 C         0.190045        -0.095006        -0.305073
 C         1.868455        -1.377916         1.384361
 C         2.827913        -0.316712         2.071981
 O         4.060305        -0.579578         2.627550
 H         3.901386         2.144434         0.875744
 H         3.488668         1.515551        -0.702834
 H         2.475586         2.903819         0.010587
 H         2.122580         1.261085         3.341577
 H        -0.384871        -1.050003        -0.426661
 H        -0.527498         0.724272        -0.351981
 H         0.824257         0.042790        -1.157775
 H         1.427721        -2.106394         2.110771
 H         2.279415        -1.980076         0.595976
 H         4.328111        -1.426155         2.305944
