19
Iteration:  2055
 C         3.174254         1.785801         0.273330
 C         2.241275         0.826614         1.005088
 C         1.775379         0.702245         2.534087
 O         0.505799         0.286714         2.244694
 C         1.000671        -0.033715         0.878190
 C         0.060099        -0.161537        -0.242215
 C         1.966656        -1.384766         1.298593
 C         2.676185        -0.382286         2.039312
 O         4.035327        -0.464712         2.573689
 H         3.801795         2.258845         1.075260
 H         3.818320         1.253289        -0.529644
 H         2.710031         2.694941        -0.025205
 H         1.816493         1.165485         3.491580
 H        -0.926260        -0.532040         0.077833
 H        -0.038618         0.770049        -0.791779
 H         0.604279        -0.763309        -0.980686
 H         1.450477        -2.207453         1.891368
 H         2.572905        -1.727505         0.420475
 H         4.160478        -0.364324         3.547085
