19
Iteration:  1143charge 0 multiplicity 1
 C         2.891222         1.904688         0.403089
 C         2.325544         0.829288         1.212362
 C         1.791900         0.657623         2.646002
 O         0.529390         0.277971         2.155006
 C         1.083211        -0.090319         0.814096
 C         0.083063        -0.031701        -0.303214
 C         2.003925        -1.416679         1.095745
 C         2.776085        -0.338602         1.975328
 O         4.048860        -0.649279         2.650478
 H         3.731059         2.459410         0.905903
 H         3.310595         1.531865        -0.608484
 H         2.002327         2.544638         0.308471
 H         1.875642         1.212460         3.644500
 H        -0.430765        -0.990895        -0.382674
 H        -0.618270         0.759567        -0.161198
 H         0.605927         0.146264        -1.182543
 H         1.439860        -2.162872         1.594605
 H         2.609756        -1.858135         0.215233
 H         4.134404         0.044456         3.367739
