19
Iteration:  1119
 C         2.975639         1.963364         0.311306
 C         2.255480         0.877358         1.130768
 C         1.801007         0.617326         2.535357
 O         0.460453         0.115645         2.288501
 C         1.009902        -0.097987         0.849561
 C         0.185007        -0.017157        -0.315898
 C         1.962306        -1.298242         1.195022
 C         2.770697        -0.362912         2.019872
 O         3.999568        -0.632091         2.703991
 H         3.789937         2.427988         0.956605
 H         3.531344         1.540454        -0.595554
 H         2.285075         2.699994         0.132914
 H         2.034596         1.037862         3.438739
 H        -0.426659        -0.863297        -0.504215
 H        -0.431060         0.867589        -0.180184
 H         0.863175         0.221693        -1.116188
 H         1.760755        -2.293767         1.575829
 H         2.314978        -1.406360         0.143814
 H         4.754429        -0.236947         2.280521
