19
Iteration:  4247charge 0 multiplicity 1
 C         2.985687         1.735935         0.136778
 C         2.342985         0.779634         1.144462
 C         1.940772         0.838769         2.524095
 O         0.472157         0.491116         2.269716
 C         1.012156        -0.026678         0.981019
 C         0.018422        -0.019805        -0.215039
 C         1.789296        -1.293954         1.344292
 C         2.823842        -0.460927         2.029130
 O         4.126660        -0.849964         2.471027
 H         3.501803         2.516307         0.686567
 H         3.644436         1.230975        -0.567886
 H         2.250369         2.265720        -0.361292
 H         2.243150         1.684770         3.176224
 H        -0.832705        -0.549415        -0.051117
 H        -0.173549         0.965780        -0.393023
 H         0.553045        -0.381868        -1.105329
 H         1.315345        -1.988285         2.126121
 H         2.201133        -1.945113         0.567306
 H         4.128995        -0.770757         3.444165
