19
Iteration:  1785charge 0 multiplicity 1
 C         3.003300         1.778092         0.256420
 C         2.327036         0.801481         1.086958
 C         1.854385         0.745736         2.546491
 O         0.489882         0.342458         2.165301
 C         1.044663        -0.119119         0.938054
 C         0.061072        -0.099385        -0.280807
 C         1.967196        -1.342288         1.331389
 C         2.812986        -0.344767         2.000326
 O         3.936632        -0.538924         2.696781
 H         3.956691         2.119082         0.752438
 H         3.234085         1.432482        -0.703403
 H         2.297995         2.655647         0.025517
 H         1.890308         1.348629         3.510532
 H        -0.395344        -1.115153        -0.288177
 H        -0.736542         0.680461        -0.301507
 H         0.649498        -0.218462        -1.226632
 H         1.661293        -2.175947         2.014460
 H         2.462917        -1.669319         0.336015
 H         4.669632        -1.019353         2.261809
