19
Iteration:  1795
 C         3.022806         1.858814         0.222158
 C         2.345803         0.840181         1.131867
 C         1.862338         0.753648         2.504796
 O         0.443057         0.253356         2.187218
 C         1.021177        -0.142783         0.883404
 C         0.100592        -0.162322        -0.236181
 C         1.921368        -1.357653         1.342214
 C         2.768870        -0.299330         2.013423
 O         3.992305        -0.525756         2.663917
 H         3.986849         2.167214         0.754041
 H         3.352685         1.335947        -0.598053
 H         2.489629         2.857778         0.011324
 H         2.189345         1.551709         3.293785
 H        -0.690700        -0.974529        -0.300603
 H        -0.414311         0.833873        -0.222137
 H         0.802460         0.012845        -1.102830
 H         1.278167        -2.025949         1.977707
 H         2.549958        -1.919863         0.525862
 H         4.335885        -1.439338         2.420074
