19
Iteration:  4183
 C         3.015923         1.694220         0.119882
 C         2.371253         0.719140         1.084828
 C         1.913957         0.800044         2.494209
 O         0.542577         0.416685         2.242745
 C         1.004694        -0.080429         0.919321
 C        -0.059647         0.149269        -0.114330
 C         1.826350        -1.390493         1.342290
 C         2.777696        -0.468401         2.003004
 O         4.136478        -0.698276         2.572484
 H         3.449813         2.528478         0.656067
 H         3.867757         1.337785        -0.403934
 H         2.171144         2.031551        -0.610463
 H         2.309312         1.645412         3.083424
 H        -1.062518        -0.187412         0.155709
 H        -0.131186         1.218340        -0.269011
 H         0.257438        -0.343493        -1.095293
 H         1.169994        -2.120783         1.922162
 H         2.380377        -1.865430         0.537844
 H         3.896158        -0.898033         3.501293
