19
Iteration:  1615charge 0 multiplicity 1
 C         3.082475         1.784925         0.265489
 C         2.283360         0.848863         1.093719
 C         1.828345         0.831397         2.463396
 O         0.518291         0.274036         2.193686
 C         1.013078        -0.145525         0.849201
 C         0.033163        -0.129445        -0.243446
 C         1.965004        -1.349572         1.371658
 C         2.803503        -0.289153         2.053987
 O         3.975429        -0.629228         2.577988
 H         3.895788         2.158415         0.797906
 H         3.509044         1.491080        -0.778841
 H         2.488083         2.612126         0.126578
 H         1.820162         1.255302         3.556548
 H        -0.864545        -0.666989         0.064596
 H        -0.133224         0.968939        -0.516927
 H         0.530403        -0.624274        -1.112086
 H         1.606512        -2.232256         1.974962
 H         2.554409        -1.899872         0.608062
 H         3.952444        -0.074701         3.391172
