19
Iteration:  3869charge 0 multiplicity 1
 C         3.195909         1.589113         0.173169
 C         2.337776         0.845391         1.124878
 C         1.842607         0.790962         2.563440
 O         0.487408         0.403346         2.237169
 C         0.993591        -0.075218         0.933453
 C        -0.032358        -0.077394        -0.200878
 C         1.830742        -1.331559         1.310964
 C         2.788417        -0.397707         2.012078
 O         4.074057        -0.545466         2.554256
 H         2.557760         1.558748        -0.700705
 H         3.425225         2.638493         0.419722
 H         4.119608         1.033112        -0.311094
 H         2.106279         1.309191         3.464840
 H        -0.967501        -0.574240         0.104569
 H        -0.134785         0.878803        -0.638250
 H         0.427762        -0.580834        -0.982197
 H         1.160859        -2.126431         1.847038
 H         2.260114        -1.545262         0.315449
 H         3.950974        -0.508610         3.527184
