19
Iteration:  1783
 C         3.002001         1.768817         0.256483
 C         2.318136         0.793056         1.083384
 C         1.837336         0.740580         2.544805
 O         0.501303         0.360333         2.169131
 C         1.048747        -0.111012         0.940187
 C         0.062835        -0.098666        -0.284306
 C         1.969797        -1.340743         1.325637
 C         2.817389        -0.349652         1.994790
 O         3.941717        -0.540894         2.712338
 H         3.952435         2.144231         0.739927
 H         3.222370         1.436962        -0.712385
 H         2.290481         2.628566         0.057733
 H         1.878863         1.320729         3.549245
 H        -0.391744        -1.145892        -0.263677
 H        -0.724468         0.648156        -0.307786
 H         0.602458        -0.195031        -1.260519
 H         1.687045        -2.232782         1.955042
 H         2.437659        -1.682423         0.347247
 H         4.644992        -0.929923         2.181196
