19
Iteration:  1763
 C         2.966343         1.781063         0.217619
 C         2.385004         0.799866         1.155024
 C         1.857773         0.716712         2.532288
 O         0.405286         0.461045         2.186886
 C         1.095841        -0.123407         0.859338
 C         0.076267        -0.170844        -0.229408
 C         1.896636        -1.391451         1.170838
 C         2.757432        -0.441665         2.096446
 O         4.046828        -0.539890         2.751345
 H         3.976670         2.118251         0.618731
 H         3.162806         1.334962        -0.699418
 H         2.273306         2.666265        -0.065675
 H         2.138000         1.376434         3.455047
 H        -0.431543        -1.162770        -0.362704
 H        -0.625810         0.659193         0.009279
 H         0.612601        -0.047823        -1.211154
 H         1.281125        -2.167367         1.665029
 H         2.535100        -1.633442         0.227818
 H         4.783053         0.000131         2.449135
