19
Iteration:  4250
 C         3.012049         1.737121         0.164577
 C         2.339449         0.779790         1.136362
 C         1.945561         0.826990         2.511553
 O         0.462107         0.503084         2.250107
 C         0.996524        -0.021974         0.974467
 C         0.003213        -0.023725        -0.205948
 C         1.802127        -1.307369         1.378619
 C         2.840505        -0.457543         2.013728
 O         4.117076        -0.841313         2.454773
 H         3.632507         2.488047         0.661561
 H         3.642516         1.233994        -0.514437
 H         2.130373         2.318991        -0.364517
 H         2.162434         1.658988         3.174024
 H        -0.860981        -0.658054         0.037814
 H        -0.169505         1.052755        -0.346598
 H         0.687138        -0.355610        -1.027670
 H         1.369460        -2.063461         2.112805
 H         2.190937        -1.952501         0.591259
 H         4.045774        -0.787772         3.425729
