19
Iteration:  4634charge 0 multiplicity 1
 C         2.964636         1.973497         0.163418
 C         2.433176         0.835763         1.032758
 C         1.899379         0.749203         2.384050
 O         0.516713         0.533344         2.089534
 C         1.069757        -0.194365         0.961912
 C         0.097657        -0.149752        -0.112991
 C         1.823360        -1.478730         1.518022
 C         2.818300        -0.403974         1.941150
 O         3.980671        -0.686134         2.647795
 H         2.392978         2.382696        -0.663152
 H         3.244622         2.739487         0.841984
 H         3.985134         1.537404        -0.286232
 H         2.086962         1.429927         3.225962
 H        -0.658148        -1.006612        -0.080749
 H        -0.618167         0.785165         0.058252
 H         0.574559        -0.218056        -1.084467
 H         1.144337        -1.982284         2.137750
 H         2.115695        -2.080204         0.627013
 H         3.873060        -1.192819         3.471868
