19
Iteration:  2952charge 0 multiplicity 1
 C         2.890656         1.686439         0.117653
 C         2.365883         0.745304         1.144055
 C         1.877169         0.734894         2.549607
 O         0.503832         0.398359         2.238250
 C         1.100889        -0.119476         0.950085
 C         0.214809        -0.003896        -0.313593
 C         1.869904        -1.337419         1.276140
 C         2.775893        -0.389780         2.092256
 O         3.987713        -0.540235         2.628214
 H         3.793990         2.007185         0.595086
 H         2.984525         1.377898        -0.844745
 H         2.199690         2.473102        -0.125707
 H         2.221530         1.176752         3.422648
 H        -0.800153        -0.381278        -0.057747
 H        -0.067265         1.035133        -0.626145
 H         0.592800        -0.638372        -1.170866
 H         1.233232        -2.076112         1.899147
 H         2.369869        -1.877118         0.403352
 H         3.837338        -0.690149         3.562754
