19
Iteration:  4811charge 0 multiplicity 1
 C         2.955775         1.845288         0.153037
 C         2.352707         0.815695         1.056039
 C         1.892645         0.856983         2.459085
 O         0.513459         0.536908         2.140741
 C         1.035078        -0.069728         0.914780
 C         0.142510        -0.356608        -0.193136
 C         1.862332        -1.340096         1.389604
 C         2.807412        -0.377283         2.090207
 O         3.983587        -0.697932         2.642224
 H         3.978195         1.805634         0.629245
 H         2.936360         1.616216        -0.928955
 H         2.523075         2.822396         0.374272
 H         2.120075         1.552209         3.272180
 H        -0.654775        -1.196807         0.065368
 H        -0.369376         0.563456        -0.451279
 H         0.640413        -0.628855        -1.225930
 H         1.303054        -2.110594         1.862446
 H         2.357182        -1.835398         0.539285
 H         4.001047        -0.570569         3.610061
