19
Iteration:  4145
 C         3.269563         1.662230         0.268556
 C         2.352296         0.821639         1.111454
 C         1.905746         0.750633         2.524061
 O         0.443514         0.497040         2.209631
 C         0.984407        -0.030704         0.985072
 C        -0.060200        -0.091196        -0.093460
 C         1.773499        -1.422320         1.347618
 C         2.816312        -0.379863         2.009764
 O         4.058479        -0.598722         2.358305
 H         4.066906         2.159131         0.878768
 H         3.742099         1.043945        -0.548951
 H         2.789762         2.455500        -0.231187
 H         2.211379         1.526902         3.220533
 H        -0.866050        -0.846298         0.039693
 H        -0.586468         0.902165        -0.189349
 H         0.308329        -0.277903        -1.058041
 H         1.062813        -1.902938         2.077070
 H         1.998131        -2.073230         0.430208
 H         4.111262        -1.150932         3.163580
