19
Iteration:  4412
 C         2.865361         1.801378         0.098316
 C         2.395064         0.679597         1.092363
 C         1.943669         0.799383         2.472428
 O         0.557866         0.472138         2.202319
 C         1.069464        -0.086510         0.886488
 C         0.129137         0.020555        -0.216181
 C         1.743196        -1.439165         1.481860
 C         2.768663        -0.454664         2.113960
 O         4.093061        -0.652701         2.576303
 H         3.792171         1.550544        -0.409774
 H         2.179670         2.091320        -0.685052
 H         3.101479         2.710847         0.718096
 H         2.379825         1.534459         3.163789
 H        -0.823850        -0.232483         0.116026
 H         0.059326         1.108559        -0.392763
 H         0.268966        -0.413266        -1.220807
 H         0.971038        -2.022765         1.963778
 H         2.036331        -1.996445         0.611495
 H         4.023297        -1.363336         3.240455
