19
Iteration:  1240
 C         2.980644         1.879398         0.528721
 C         2.340231         0.825869         1.264657
 C         1.762908         0.623779         2.595931
 O         0.387388         0.331023         2.050226
 C         1.097265        -0.143871         0.851088
 C         0.092309        -0.117077        -0.279801
 C         1.945265        -1.343291         1.238988
 C         2.781920        -0.382240         2.014143
 O         4.128885        -0.497934         2.447173
 H         3.941747         2.313144         0.882820
 H         3.251845         1.361517        -0.425620
 H         2.239066         2.527084         0.326001
 H         1.819411         1.296846         3.546836
 H        -0.885052        -0.558592         0.014406
 H         0.048851         0.889068        -0.684209
 H         0.395940        -0.718989        -1.101986
 H         1.540356        -2.087564         1.847082
 H         2.563358        -1.653403         0.368645
 H         4.185484        -0.880449         3.405162
