19
Iteration:    91
 C         2.860926         2.053632         0.643053
 C         2.351905         0.788801         1.191729
 C         1.759247         0.638482         2.552261
 O         0.474936         0.186908         2.149566
 C         1.111110        -0.048134         0.888879
 C         0.104682        -0.011828        -0.316024
 C         1.987249        -1.341155         1.152415
 C         2.832964        -0.395727         1.965952
 O         4.054572        -0.727470         2.474592
 H         3.534652         2.512156         1.325493
 H         3.293691         1.981305        -0.285162
 H         1.997934         2.837969         0.537415
 H         1.804756         1.132583         3.555070
 H        -0.216996        -1.065613        -0.616483
 H        -0.790361         0.569907        -0.126991
 H         0.556493         0.330574        -1.230268
 H         1.433940        -2.192881         1.682932
 H         2.534128        -1.802913         0.351020
 H         4.652859         0.047284         2.588208
