19
Iteration:  3788
 C         2.948777         1.796975         0.158814
 C         2.457887         0.730884         1.103086
 C         1.895745         0.873887         2.493997
 O         0.534002         0.506313         2.159860
 C         1.056584        -0.105625         0.939940
 C         0.135495        -0.174283        -0.211721
 C         1.789893        -1.343733         1.478164
 C         2.780680        -0.414017         2.031765
 O         3.976527        -0.672713         2.505198
 H         2.243481         2.656542        -0.010099
 H         3.849835         2.320576         0.556430
 H         3.323817         1.383750        -0.727641
 H         1.868501         1.438303         3.495383
 H        -0.561216        -0.907293        -0.092009
 H        -0.303607         0.753595        -0.231889
 H         0.842891        -0.406697        -1.033976
 H         1.111643        -1.977684         2.049600
 H         2.208027        -2.012950         0.710337
 H         3.840024        -1.024044         3.419439
