19
Iteration:  2093
 C         3.036458         1.802305         0.307362
 C         2.361419         0.806457         1.082085
 C         1.741079         0.760606         2.460799
 O         0.497489         0.352330         2.046070
 C         1.109578        -0.102763         0.787256
 C        -0.019201        -0.165566        -0.152228
 C         1.972579        -1.348137         1.306453
 C         2.827609        -0.323364         2.116290
 O         4.032237        -0.639021         2.651950
 H         3.783994         2.209342         1.002781
 H         3.529426         1.640914        -0.605645
 H         2.162075         2.552353         0.058525
 H         1.784435         1.286368         3.491979
 H        -0.915973        -0.584873         0.330937
 H        -0.305432         0.890281        -0.424344
 H         0.222133        -0.745624        -1.052692
 H         1.625376        -2.064291         2.041921
 H         2.475756        -1.849844         0.472935
 H         4.180374         0.018974         3.321063
