19
Iteration:  4066charge 0 multiplicity 1
 C         3.169867         1.684624         0.173427
 C         2.347646         0.718494         1.130480
 C         1.830783         0.725420         2.484844
 O         0.483178         0.458717         2.215082
 C         0.950976        -0.109540         0.940593
 C        -0.034350         0.024460        -0.185466
 C         1.740507        -1.348438         1.422152
 C         2.827537        -0.385550         2.001869
 O         4.187121        -0.596012         2.503285
 H         4.111893         1.251851        -0.122162
 H         2.702636         1.738364        -0.808219
 H         3.266213         2.783483         0.521843
 H         2.204598         1.496526         3.116138
 H        -1.041996        -0.487753         0.113003
 H        -0.325022         1.127314        -0.184049
 H         0.314302        -0.395784        -1.188330
 H         1.267879        -2.098029         2.170479
 H         2.241572        -1.999118         0.644444
 H         3.910898        -1.003897         3.337802
