19
Iteration:   860
 C         3.040403         2.109485         0.472174
 C         2.187410         0.993822         1.167276
 C         1.850742         0.638291         2.526944
 O         0.414639         0.033618         2.283491
 C         1.075668        -0.091923         0.867699
 C         0.164601        -0.079292        -0.357656
 C         1.967248        -1.408212         1.119618
 C         2.810762        -0.349663         1.903216
 O         3.990075        -0.573826         2.649416
 H         3.797642         2.379684         1.248088
 H         3.515458         1.780064        -0.416380
 H         2.530234         3.152541         0.431570
 H         1.941839         0.924784         3.545565
 H        -0.825687        -0.597007         0.045844
 H        -0.191030         0.984716        -0.444541
 H         0.578424        -0.494610        -1.290512
 H         1.471910        -2.237611         1.664697
 H         2.466028        -1.690033         0.098583
 H         4.439573        -1.388238         2.513536
