19
Iteration:  1731charge 0 multiplicity 1
 C         3.009292         1.772705         0.218896
 C         2.307881         0.833923         1.074930
 C         1.780043         0.748108         2.504171
 O         0.422820         0.350778         2.258550
 C         1.142800        -0.164624         0.852617
 C         0.099816        -0.120169        -0.290666
 C         1.933014        -1.341384         1.387036
 C         2.788525        -0.282612         2.040856
 O         4.008543        -0.619817         2.575206
 H         3.924954         2.100705         0.807272
 H         3.375497         1.316977        -0.697240
 H         2.426415         2.740851        -0.026756
 H         1.987751         1.118544         3.585674
 H        -0.566571        -0.980921        -0.401266
 H        -0.457225         0.828390        -0.148123
 H         0.606406         0.046229        -1.278405
 H         1.518278        -2.077526         2.063656
 H         2.466336        -2.064914         0.703336
 H         4.442130        -0.150427         3.306792
