19
Iteration:  2360charge 0 multiplicity 1
 C         2.782727         1.877662         0.154553
 C         2.427238         0.720135         1.103842
 C         1.852584         0.772451         2.606831
 O         0.473465         0.480132         2.136188
 C         1.122850        -0.168794         0.939308
 C         0.193461        -0.119899        -0.355968
 C         1.890974        -1.357095         1.396743
 C         2.762918        -0.324298         2.115200
 O         4.060512        -0.709870         2.619659
 H         3.772383         2.331109         0.557857
 H         2.870594         1.373073        -0.870397
 H         2.025279         2.654641        -0.043234
 H         2.083017         1.534092         3.330132
 H        -0.639108        -0.837749        -0.429826
 H        -0.147701         0.921053        -0.238273
 H         0.628728        -0.172226        -1.332220
 H         1.380425        -2.064261         1.938828
 H         2.521868        -1.869068         0.655080
 H         3.940702        -1.071024         3.526114
