19
Iteration:  2881charge 0 multiplicity 1
 C         3.394559         1.737849         0.433740
 C         2.346887         0.852115         1.067019
 C         1.796155         0.818602         2.446110
 O         0.440590         0.383488         2.182516
 C         0.957043        -0.200215         0.848795
 C        -0.011687        -0.198177        -0.170315
 C         1.837253        -1.376795         1.355458
 C         2.698866        -0.360220         2.040904
 O         4.031253        -0.453189         2.421637
 H         4.174928         1.868726         1.136129
 H         3.685408         1.480210        -0.619418
 H         2.779357         2.572950         0.166484
 H         1.986455         1.488330         3.310578
 H        -0.825478        -0.897060         0.041049
 H        -0.600591         0.707811         0.009998
 H         0.364403        -0.413263        -1.129258
 H         1.270007        -2.186201         2.060368
 H         2.410702        -1.933726         0.604982
 H         4.340228        -0.915099         3.191756
