19
Iteration:  2787charge 0 multiplicity 1
 C         2.863137         1.702754         0.112352
 C         2.320676         0.802355         1.118015
 C         1.859324         0.788992         2.567114
 O         0.519201         0.391778         2.218233
 C         1.047373        -0.084999         0.896316
 C         0.178648         0.020586        -0.306989
 C         1.908817        -1.383398         1.303295
 C         2.812765        -0.426908         2.082232
 O         4.070703        -0.632757         2.682882
 H         3.692362         2.370532         0.647739
 H         3.117459         1.379251        -0.884040
 H         1.908350         2.375974        -0.108472
 H         2.032431         1.546182         3.407976
 H        -0.840895        -0.402048        -0.057187
 H        -0.083544         1.109258        -0.391491
 H         0.471040        -0.379205        -1.345601
 H         1.582538        -2.065507         1.979058
 H         2.363575        -1.854331         0.438806
 H         3.805719        -1.331070         3.343711
