19
Iteration:  1026
 C         3.023725         2.114126         0.543730
 C         2.320494         0.836258         1.095826
 C         1.754542         0.547737         2.569881
 O         0.510042         0.140855         2.180413
 C         1.054356        -0.072474         0.851463
 C         0.053691        -0.157098        -0.284965
 C         1.975106        -1.318419         1.203516
 C         2.790981        -0.310249         1.955611
 O         3.964401        -0.650544         2.594963
 H         3.845911         2.393030         1.196231
 H         3.475746         1.875821        -0.360989
 H         2.440108         3.105103         0.580882
 H         2.042264         1.232387         3.431820
 H        -1.028084        -0.563349        -0.380818
 H         0.011492         0.863204        -0.771509
 H         0.694739        -0.625558        -1.110817
 H         1.533020        -2.094297         1.936288
 H         2.455909        -1.840077         0.303766
 H         4.623346         0.040616         2.262445
