19
Iteration:  4333
 C         3.326177         1.603368         0.249064
 C         2.376846         0.810615         1.157831
 C         1.808793         0.811842         2.531283
 O         0.491918         0.457593         2.217844
 C         0.969639        -0.121262         0.938965
 C         0.006566        -0.065277        -0.041411
 C         1.828446        -1.380675         1.293065
 C         2.685922        -0.345712         2.014968
 O         3.981496        -0.552074         2.332992
 H         4.298505         1.018546         0.311107
 H         3.041673         1.587066        -0.882231
 H         3.540942         2.598741         0.397124
 H         1.992803         1.463922         3.405652
 H        -0.705996        -0.874814         0.345139
 H        -0.590532         0.819183         0.034379
 H         0.293546        -0.385876        -1.099394
 H         1.535554        -2.146282         1.935849
 H         2.355814        -1.694577         0.409978
 H         3.997037        -0.693424         3.306993
