19
Iteration:  3860charge 0 multiplicity 1
 C         3.112832         1.631058         0.094588
 C         2.380633         0.760278         1.139998
 C         1.816502         0.739868         2.531009
 O         0.539363         0.424147         2.253298
 C         1.006854        -0.064638         0.932255
 C         0.098786        -0.038331        -0.186308
 C         1.782665        -1.354156         1.273013
 C         2.716874        -0.343018         2.048433
 O         4.050110        -0.533115         2.559779
 H         2.512491         1.838686        -0.799111
 H         3.432415         2.636674         0.422695
 H         4.094900         1.072454        -0.098359
 H         2.190861         1.111398         3.472973
 H        -0.835768        -0.481410         0.320893
 H        -0.282597         0.978426        -0.543858
 H         0.414753        -0.806489        -0.873979
 H         1.300629        -2.174000         1.858609
 H         2.252870        -1.951989         0.417876
 H         3.876120        -0.517712         3.527469
