19
Iteration:  1227
 C         2.999656         1.957828         0.476742
 C         2.332477         0.817836         1.254920
 C         1.682037         0.690477         2.592580
 O         0.419082         0.329218         2.134757
 C         1.027617        -0.084748         0.897860
 C         0.187097        -0.160839        -0.318482
 C         1.918572        -1.429944         1.225454
 C         2.820323        -0.427025         1.980668
 O         4.131797        -0.556443         2.459328
 H         3.883647         2.363163         1.065098
 H         3.322930         1.595566        -0.505686
 H         2.425724         2.873790         0.259435
 H         1.834117         0.977599         3.617756
 H        -0.813210        -0.458553         0.110221
 H        -0.087765         0.851995        -0.739014
 H         0.579343        -0.882234        -1.075821
 H         1.353711        -2.308510         1.645090
 H         2.313323        -1.811476         0.277773
 H         4.130294        -0.005762         3.228635
