19
Iteration:  3343charge 0 multiplicity 1
 C         3.065917         1.744076         0.139370
 C         2.399253         0.733877         1.143306
 C         1.750674         0.776439         2.483579
 O         0.391034         0.331057         2.109771
 C         1.152384        -0.169687         0.901875
 C         0.090739        -0.045852        -0.268880
 C         1.853078        -1.365283         1.490134
 C         2.765420        -0.327995         2.096968
 O         4.105290        -0.527918         2.582614
 H         4.036519         1.927875         0.385839
 H         3.087214         1.610816        -0.954104
 H         2.611603         2.819757         0.191687
 H         1.836344         1.580354         3.294473
 H        -0.842692        -0.612351         0.041249
 H        -0.137731         0.979272        -0.280262
 H         0.421847        -0.570907        -1.191870
 H         1.212216        -2.161503         2.098445
 H         2.321213        -1.963465         0.677674
 H         3.954526        -0.681616         3.530340
