19
Iteration:   741charge 0 multiplicity 1
 C         2.881975         1.869963         0.397138
 C         2.300663         0.797784         1.257220
 C         1.691108         0.637396         2.574316
 O         0.397977         0.174218         2.254459
 C         1.057804        -0.055429         0.941687
 C         0.289773         0.071093        -0.337832
 C         2.003206        -1.333885         1.183400
 C         2.794313        -0.370290         1.971336
 O         4.090195        -0.571338         2.448630
 H         3.686999         2.429172         0.925416
 H         3.365142         1.513838        -0.484415
 H         2.016266         2.640082         0.112371
 H         1.761500         1.088329         3.609512
 H        -0.480766        -0.780606        -0.409564
 H        -0.284043         1.007934        -0.389558
 H         1.056971        -0.094233        -1.078189
 H         1.509089        -2.181458         1.668041
 H         2.669035        -1.697461         0.330348
 H         4.028822        -1.048510         3.328734
