19
Iteration:  1671
 C         2.989752         1.814254         0.313200
 C         2.343902         0.769598         1.235076
 C         1.847304         0.636253         2.594664
 O         0.458768         0.508706         2.064435
 C         1.054772        -0.068154         0.865900
 C         0.079433        -0.162116        -0.261731
 C         1.856809        -1.487985         1.332388
 C         2.846904        -0.430778         2.097220
 O         4.051777        -0.393867         2.526939
 H         3.759497         2.321941         0.804893
 H         3.478469         1.230775        -0.537439
 H         2.349026         2.494770        -0.156118
 H         1.914809         1.329064         3.354677
 H        -0.884940        -0.661135         0.104005
 H        -0.133993         0.785585        -0.802940
 H         0.488064        -0.885736        -0.991179
 H         1.428427        -2.209897         2.090752
 H         2.252028        -1.830618         0.404055
 H         4.322079        -1.323249         2.857743
