19
Iteration:   903
 C         2.867947         1.904934         0.484963
 C         2.257139         0.785973         1.319103
 C         1.663530         0.615264         2.622017
 O         0.329844         0.197879         2.130066
 C         1.160830        -0.099373         0.832666
 C         0.249112         0.071538        -0.273217
 C         2.010802        -1.363362         1.126397
 C         2.809076        -0.463361         2.037108
 O         4.148370        -0.531565         2.575477
 H         3.763819         2.427154         0.876973
 H         3.230568         1.336885        -0.376976
 H         2.140132         2.650075         0.124294
 H         1.860922         1.295621         3.426649
 H        -0.579353        -0.741752        -0.390578
 H        -0.339499         0.969503         0.003041
 H         0.684047         0.136259        -1.264385
 H         1.454081        -2.296478         1.322489
 H         2.581027        -1.561861         0.130122
 H         4.696186        -0.378851         1.794405
