19
Iteration:  2027charge 0 multiplicity 1
 C         3.115433         1.711348         0.331532
 C         2.321387         0.894568         1.211504
 C         1.736882         0.802628         2.567845
 O         0.401708         0.332136         2.183766
 C         1.019396        -0.084933         0.898651
 C         0.150005        -0.172626        -0.307049
 C         1.864761        -1.430593         1.305822
 C         2.782828        -0.451459         1.996390
 O         4.111571        -0.406986         2.519820
 H         4.057697         2.168694         0.718354
 H         3.398251         1.152350        -0.500475
 H         2.369864         2.523931        -0.069668
 H         1.861988         1.472229         3.441485
 H        -0.727853        -0.751811        -0.017708
 H        -0.286211         0.846459        -0.524433
 H         0.656703        -0.507262        -1.215973
 H         1.440373        -2.135997         2.022351
 H         2.247255        -1.756050         0.326780
 H         4.247846        -1.107778         3.216403
