19
Iteration:  4231charge 0 multiplicity 1
 C         2.888985         1.739058         0.076919
 C         2.378410         0.760467         1.075376
 C         1.925549         0.797396         2.554100
 O         0.618499         0.457358         2.356852
 C         1.062042        -0.048119         0.912726
 C         0.111372         0.048445        -0.244620
 C         1.713477        -1.354656         1.358309
 C         2.788408        -0.343740         2.087707
 O         4.052137        -0.839826         2.506166
 H         3.430485         2.622973         0.496891
 H         3.720712         1.272664        -0.529838
 H         1.988167         2.009130        -0.611548
 H         2.098209         1.257806         3.519967
 H        -0.864050        -0.426887         0.288689
 H        -0.099339         1.185373        -0.586667
 H         0.525705        -0.613956        -1.048722
 H         1.065379        -2.142233         1.670829
 H         2.181828        -1.704755         0.418270
 H         4.180149        -0.603746         3.443183
