19
Iteration:  2716
 C         3.190078         1.799136         0.287906
 C         2.308935         0.781164         1.014612
 C         1.742837         0.820273         2.550238
 O         0.447187         0.349316         2.239934
 C         1.064411        -0.185674         0.888660
 C         0.063911        -0.129553        -0.246889
 C         1.857387        -1.354652         1.380404
 C         2.788258        -0.301374         2.071972
 O         4.065468        -0.623888         2.490192
 H         4.078339         1.994408         0.769832
 H         3.394917         1.660743        -0.836111
 H         2.573334         2.679510         0.170903
 H         2.033020         1.466734         3.410748
 H        -0.857015        -0.725574        -0.161371
 H        -0.294189         0.922015        -0.269538
 H         0.513498        -0.332039        -1.191903
 H         1.187779        -2.135361         1.840433
 H         2.263902        -1.709288         0.447375
 H         4.082844        -0.657296         3.484101
