19
Iteration:   380charge 0 multiplicity 1
 C         2.909386         2.007229         0.464382
 C         2.390932         0.822424         1.207965
 C         1.844653         0.607218         2.576252
 O         0.471115         0.258791         2.224931
 C         1.077807        -0.064990         0.828196
 C         0.093884        -0.027714        -0.236690
 C         1.963430        -1.373036         1.000237
 C         2.799709        -0.445973         1.948799
 O         3.971741        -0.592087         2.727972
 H         3.891380         2.391762         0.860055
 H         3.238408         1.493823        -0.503923
 H         2.200807         2.881306         0.272515
 H         1.906137         1.080731         3.630999
 H        -0.565161        -0.888715         0.041332
 H        -0.362072         0.970425        -0.385348
 H         0.473224        -0.472069        -1.208757
 H         1.512255        -2.312615         1.325045
 H         2.483917        -1.395804        -0.013631
 H         4.543033        -0.794870         1.989871
