19
Iteration:  3741
 C         3.220123         1.625543         0.227474
 C         2.326437         0.821965         1.076944
 C         1.826730         0.862767         2.517106
 O         0.491554         0.430516         2.205813
 C         1.011769        -0.112445         0.945069
 C        -0.002166        -0.198547        -0.237784
 C         1.817277        -1.368803         1.356129
 C         2.733392        -0.282056         2.028246
 O         4.044862        -0.560396         2.527064
 H         3.071728         2.632564         0.642135
 H         4.280324         1.509269         0.340759
 H         3.072295         1.646850        -0.812070
 H         2.097581         1.502890         3.307139
 H        -0.701259        -1.028694         0.033033
 H        -0.617380         0.778673        -0.253530
 H         0.625742        -0.492667        -1.078321
 H         1.548181        -2.176797         1.939401
 H         2.186908        -1.868325         0.415640
 H         4.015310        -0.672705         3.488430
