19
Iteration:   745charge 0 multiplicity 1
 C         2.894231         1.910406         0.411331
 C         2.291847         0.825167         1.208377
 C         1.723058         0.660653         2.572414
 O         0.395851         0.146484         2.265228
 C         1.038670        -0.084119         0.950314
 C         0.297905         0.052424        -0.337646
 C         1.988036        -1.340934         1.194011
 C         2.775630        -0.350726         1.987832
 O         4.083408        -0.603578         2.451375
 H         3.633311         2.470180         0.948812
 H         3.322163         1.468148        -0.527553
 H         2.153097         2.572971         0.156545
 H         1.774238         1.062511         3.515159
 H        -0.381703        -0.747137        -0.436867
 H        -0.189285         1.032742        -0.475682
 H         1.085258        -0.030608        -1.103624
 H         1.543940        -2.193588         1.730115
 H         2.455849        -1.562734         0.250494
 H         4.186394        -0.913570         3.348301
