19
Iteration:   609charge 0 multiplicity 1
 C         2.941128         1.985151         0.607289
 C         2.357849         0.754330         1.194529
 C         1.740810         0.655067         2.546495
 O         0.411859         0.411580         2.146187
 C         1.096449        -0.124308         0.860074
 C         0.192392        -0.151665        -0.343246
 C         1.889453        -1.351731         1.329224
 C         2.817238        -0.396251         1.985159
 O         4.050183        -0.680372         2.465824
 H         3.656386         2.492387         1.274598
 H         3.350433         1.824594        -0.321945
 H         2.138706         2.810033         0.426177
 H         2.090681         1.289896         3.317953
 H        -0.512578        -1.016307        -0.141457
 H        -0.348544         0.783341        -0.472091
 H         0.679127        -0.266139        -1.318188
 H         1.533361        -2.225214         1.867936
 H         2.336398        -1.679763         0.349364
 H         4.623494        -0.240944         1.785075
