19
Iteration:   597charge 0 multiplicity 1
 C         2.950026         2.055615         0.531550
 C         2.312089         0.843674         1.101804
 C         1.858043         0.714384         2.502558
 O         0.383403         0.284611         2.233796
 C         1.041900        -0.145552         0.878253
 C         0.188468        -0.114592        -0.359313
 C         1.872923        -1.406409         1.278808
 C         2.768508        -0.401980         2.029673
 O         4.096950        -0.676756         2.534127
 H         3.697401         2.303776         1.311634
 H         3.526416         1.881274        -0.296813
 H         2.183578         2.908789         0.384094
 H         1.992890         1.246584         3.362558
 H        -0.627786        -0.815128        -0.612559
 H        -0.238319         0.890589        -0.447706
 H         1.012626        -0.257841        -1.102830
 H         1.210604        -1.932795         2.000248
 H         2.268361        -2.054729         0.467944
 H         4.747723        -0.520507         1.802164
