19
Iteration:   516
 C         2.951749         1.816486         0.273588
 C         2.293887         0.926474         1.189234
 C         1.736643         0.616698         2.629011
 O         0.502083         0.159076         2.217928
 C         1.152558        -0.099813         0.795567
 C         0.053060         0.128057        -0.233980
 C         2.063192        -1.311063         1.066710
 C         2.779338        -0.307694         2.032118
 O         3.971250        -0.687520         2.768886
 H         3.845391         2.302353         0.638688
 H         3.031551         1.334689        -0.774047
 H         2.290017         2.625027         0.142677
 H         1.760506         1.162037         3.663622
 H        -0.589084        -0.660769         0.124674
 H        -0.387182         1.138192        -0.375588
 H         0.362017        -0.284411        -1.211597
 H         1.716680        -2.354799         1.385216
 H         2.710998        -1.459808         0.196053
 H         4.685617        -0.658241         2.119815
