19
Iteration:  2386charge 0 multiplicity 1
 C         2.897394         1.810603         0.151571
 C         2.347638         0.748919         1.091309
 C         1.850130         0.794697         2.517089
 O         0.470168         0.301362         2.188189
 C         1.079029        -0.091270         0.995414
 C         0.237430        -0.006108        -0.292000
 C         1.840457        -1.412739         1.358659
 C         2.807681        -0.346470         1.978029
 O         4.038247        -0.550995         2.704159
 H         3.769212         2.320990         0.571454
 H         3.126415         1.216169        -0.742955
 H         2.212002         2.464286        -0.233835
 H         2.119424         1.529535         3.298025
 H        -0.608588        -0.730036        -0.074313
 H        -0.180068         1.038531        -0.452204
 H         0.643585        -0.422888        -1.283106
 H         1.188443        -2.052909         2.030751
 H         2.249255        -2.036776         0.505742
 H         4.000434        -1.372923         3.219589
