19
Iteration:  3846
 C         3.016782         1.672050         0.083678
 C         2.380100         0.763472         1.061465
 C         1.923626         0.757990         2.568604
 O         0.475246         0.427393         2.228327
 C         1.124897        -0.060555         0.940575
 C         0.119208        -0.014971        -0.169537
 C         1.804152        -1.415203         1.363989
 C         2.769733        -0.465214         2.018315
 O         3.963961        -0.521868         2.571502
 H         2.391722         1.877529        -0.777521
 H         3.219873         2.602104         0.647375
 H         4.011600         1.266736        -0.407463
 H         2.042995         1.479817         3.351730
 H        -0.830606        -0.343292         0.221762
 H         0.082169         0.937542        -0.519022
 H         0.396209        -0.537258        -1.022546
 H         1.064548        -2.068501         2.012820
 H         2.307679        -1.810310         0.503868
 H         3.994226        -0.814349         3.498109
