19
Iteration:  1436charge 0 multiplicity 1
 C         3.091892         1.895944         0.322719
 C         2.316052         0.811557         1.149505
 C         1.762516         0.751410         2.514090
 O         0.464293         0.182306         2.182674
 C         1.070934        -0.103197         0.854703
 C         0.036584        -0.134104        -0.237485
 C         1.951071        -1.345386         1.288013
 C         2.834557        -0.296533         2.026195
 O         4.013737        -0.528231         2.640175
 H         3.971301         2.346660         0.889842
 H         3.349396         1.476487        -0.669155
 H         2.524002         2.786800         0.079281
 H         1.742862         1.568055         3.144598
 H        -0.998633        -0.214238         0.258822
 H         0.007688         0.831333        -0.750359
 H         0.293525        -0.878696        -1.007738
 H         1.395412        -2.084729         1.868513
 H         2.570428        -1.888189         0.449952
 H         4.100614        -1.438868         2.276409
