19
Iteration:  4258
 C         3.048931         1.761842         0.243088
 C         2.372682         0.765540         1.063557
 C         1.906553         0.778991         2.500795
 O         0.487422         0.543125         2.202447
 C         0.959549        -0.050988         0.973122
 C         0.017255        -0.012921        -0.140988
 C         1.821358        -1.389560         1.479081
 C         2.841398        -0.375342         1.955081
 O         4.073658        -0.800831         2.415060
 H         3.831750         2.360766         0.670463
 H         3.572613         1.196953        -0.545353
 H         2.335633         2.308644        -0.264786
 H         2.046773         1.472816         3.352706
 H        -0.720242        -0.689854         0.024677
 H        -0.389233         0.917746        -0.312905
 H         0.644082        -0.366142        -0.971957
 H         1.288599        -2.183887         2.094368
 H         2.194238        -1.783888         0.513887
 H         3.976607        -0.911895         3.379678
