19
Iteration:  4277
 C         3.170634         1.762771         0.236575
 C         2.377994         0.744840         1.079396
 C         1.928997         0.807147         2.508547
 O         0.527821         0.549368         2.219131
 C         1.034264        -0.115426         0.936152
 C        -0.019196        -0.115776        -0.138073
 C         1.733558        -1.382750         1.397789
 C         2.723523        -0.453033         2.018109
 O         4.022017        -0.617699         2.370581
 H         4.040812         1.951282         0.938359
 H         3.702054         1.497599        -0.754552
 H         2.622802         2.660059         0.173171
 H         2.252671         1.361969         3.411743
 H        -0.789674        -0.934218         0.114786
 H        -0.454635         0.902669         0.059176
 H         0.438449        -0.161774        -1.129208
 H         1.225945        -1.932097         2.164308
 H         2.117489        -2.095803         0.664697
 H         4.017278        -1.196236         3.159422
