19
Iteration:  4122charge 0 multiplicity 1
 C         3.299280         1.570638         0.317327
 C         2.343546         0.802339         1.126513
 C         1.823262         0.839991         2.541386
 O         0.514198         0.528430         2.292251
 C         0.873308         0.002410         0.967716
 C        -0.037345        -0.231013        -0.181907
 C         1.715175        -1.319648         1.375310
 C         2.786665        -0.334555         1.981297
 O         4.145004        -0.618204         2.291095
 H         4.174957         1.623571         0.995495
 H         3.540132         1.276372        -0.735224
 H         3.048864         2.660132         0.319694
 H         2.265315         1.236916         3.415585
 H        -0.816467        -1.108878        -0.142522
 H        -0.673379         0.740468        -0.349672
 H         0.468060        -0.320212        -1.143132
 H         1.013118        -2.076254         1.895729
 H         2.188093        -1.673854         0.393212
 H         3.966890        -0.946210         3.191506
