19
Iteration:  2799charge 0 multiplicity 1
 C         2.874552         1.738793         0.161167
 C         2.332550         0.780601         1.135514
 C         1.813905         0.791712         2.492204
 O         0.478308         0.394213         2.237680
 C         1.104750        -0.166009         0.910957
 C         0.112799         0.001461        -0.270964
 C         1.916347        -1.334143         1.360001
 C         2.861110        -0.270299         1.992076
 O         4.032451        -0.699670         2.636650
 H         3.833704         2.269908         0.665386
 H         3.388494         1.136255        -0.572264
 H         2.278382         2.624207        -0.221709
 H         2.011231         1.430416         3.432763
 H        -0.770122        -0.628095        -0.071127
 H        -0.114522         1.069112        -0.441497
 H         0.638248        -0.403211        -1.200285
 H         1.339035        -2.021081         1.860772
 H         2.506675        -1.813292         0.568781
 H         3.893057        -1.354209         3.332093
