19
Iteration:   979
 C         2.905767         2.016404         0.539064
 C         2.363333         0.848971         1.203413
 C         1.829672         0.580636         2.566290
 O         0.426619         0.269656         2.068010
 C         1.052475        -0.097522         0.901422
 C         0.104849        -0.076848        -0.286490
 C         2.056612        -1.323308         1.144816
 C         2.775988        -0.397448         2.018054
 O         4.028712        -0.585934         2.567739
 H         3.662355         2.586774         1.124488
 H         3.315173         1.672644        -0.421455
 H         2.127770         2.741860         0.513769
 H         1.852083         1.221833         3.375967
 H        -0.579760        -0.964402        -0.050736
 H        -0.607687         0.747708        -0.427786
 H         0.535814        -0.348113        -1.204643
 H         1.730291        -2.270098         1.577669
 H         2.722465        -1.469640         0.217126
 H         4.259436        -1.541295         2.793899
