19
Iteration:  2204charge 0 multiplicity 1
 C         3.038859         1.740969         0.217464
 C         2.295942         0.764169         1.071737
 C         1.766170         0.695989         2.560903
 O         0.415174         0.402784         2.222476
 C         1.089958        -0.211554         0.923802
 C         0.150993        -0.077089        -0.309986
 C         1.895085        -1.378125         1.369019
 C         2.760611        -0.331705         2.038391
 O         4.070611        -0.427688         2.595255
 H         3.863117         2.007529         0.797428
 H         3.494890         1.172917        -0.619065
 H         2.573736         2.627955        -0.314845
 H         1.813652         1.324358         3.542704
 H        -0.719916        -0.690731        -0.353866
 H        -0.090697         0.932335        -0.179343
 H         0.598314        -0.207977        -1.283432
 H         1.405185        -2.126984         1.932772
 H         2.477739        -1.815289         0.631121
 H         4.203774        -1.322389         3.020928
