19
Iteration:  1249charge 0 multiplicity 1
 C         2.988387         1.836100         0.445722
 C         2.346348         0.785610         1.232642
 C         1.729801         0.615106         2.617536
 O         0.408355         0.289767         2.089191
 C         1.099399        -0.135461         0.792586
 C         0.078812        -0.082674        -0.287460
 C         2.008901        -1.325911         1.266004
 C         2.797712        -0.327779         2.077870
 O         4.096037        -0.471661         2.491823
 H         3.755095         2.237609         1.168135
 H         3.344107         1.569123        -0.566447
 H         2.268939         2.697170         0.338839
 H         1.870510         1.414340         3.386317
 H        -0.912290        -0.472221         0.109916
 H        -0.148484         0.978592        -0.610843
 H         0.423293        -0.678078        -1.157677
 H         1.401721        -2.146853         1.739378
 H         2.521392        -1.722388         0.380084
 H         4.183601        -1.418002         2.884339
