19
Iteration:  2236
 C         3.188305         1.669276         0.289561
 C         2.335042         0.807117         1.114352
 C         1.772380         0.746184         2.548643
 O         0.468759         0.247364         2.248141
 C         1.050527        -0.114524         0.858193
 C         0.045341        -0.152009        -0.235798
 C         1.884845        -1.305650         1.237348
 C         2.745167        -0.344589         1.993656
 O         4.023949        -0.371879         2.582410
 H         3.987564         2.007344         0.888368
 H         3.708768         0.937683        -0.308198
 H         2.662113         2.514102        -0.320273
 H         1.760816         1.602480         3.309945
 H        -0.867019        -0.520272         0.116407
 H        -0.183925         0.838260        -0.492510
 H         0.470184        -0.617743        -1.107399
 H         1.311296        -2.021037         1.802242
 H         2.454155        -1.619233         0.442006
 H         3.920124        -0.867826         3.419359
