19
Iteration:  4467charge 0 multiplicity 1
 C         3.111890         1.818117         0.197997
 C         2.412178         0.735440         1.040311
 C         1.869609         0.858838         2.493379
 O         0.593945         0.493844         2.265720
 C         1.012580        -0.031088         0.956669
 C         0.075057        -0.243472        -0.167173
 C         1.768222        -1.370793         1.340251
 C         2.717834        -0.359220         2.096434
 O         3.966939        -0.678018         2.451611
 H         3.306851         1.271840        -0.697191
 H         2.576543         2.721789         0.002635
 H         4.105068         2.017980         0.692663
 H         2.055073         1.447205         3.406593
 H        -0.563801        -1.053333         0.027559
 H        -0.586040         0.658575        -0.267125
 H         0.734095        -0.419637        -1.031102
 H         0.993374        -1.972256         1.700406
 H         2.190354        -1.844311         0.486780
 H         3.976655        -0.842719         3.415692
