19
Iteration:  3650
 C         3.056884         1.686256         0.124458
 C         2.345060         0.872338         1.156080
 C         1.826087         0.812413         2.532252
 O         0.435103         0.402565         2.225046
 C         1.081040        -0.083901         0.918319
 C         0.160358        -0.133531        -0.248827
 C         1.821515        -1.359554         1.383355
 C         2.766350        -0.366699         2.102586
 O         4.042397        -0.569708         2.521240
 H         3.571411         2.436299         0.581894
 H         3.828301         1.069333        -0.334620
 H         2.379001         1.889604        -0.745440
 H         2.000022         1.551967         3.394443
 H        -0.906137        -0.683714        -0.139664
 H        -0.086040         0.886288        -0.686407
 H         0.647358        -0.859912        -0.931898
 H         1.327955        -2.126546         1.989822
 H         2.233389        -1.910936         0.560174
 H         4.044971        -0.769970         3.465629
