19
Iteration:   827charge 0 multiplicity 1
 C         2.934207         2.095024         0.619166
 C         2.394346         0.846426         1.183829
 C         1.843175         0.657371         2.556300
 O         0.423307         0.267513         2.108676
 C         1.101026        -0.119474         0.764739
 C         0.028078        -0.165151        -0.322186
 C         2.026368        -1.309346         1.159466
 C         2.805552        -0.439704         2.009391
 O         4.003759        -0.649405         2.639217
 H         3.824823         2.405844         1.212139
 H         3.260829         2.086098        -0.403346
 H         2.064768         2.841805         0.662774
 H         2.027931         1.271231         3.487431
 H        -0.825452        -0.790972         0.200968
 H        -0.454941         0.823408        -0.410492
 H         0.057961        -0.615733        -1.310946
 H         1.639287        -2.295021         1.455452
 H         2.715012        -1.581023         0.272322
 H         4.631406        -0.896774         1.932513
