19
Iteration:   894charge 0 multiplicity 1
 C         2.879451         1.832385         0.508533
 C         2.283565         0.824730         1.249543
 C         1.705720         0.649240         2.646646
 O         0.390763         0.149060         2.095957
 C         1.105256        -0.034499         0.899366
 C         0.202541         0.063260        -0.305618
 C         1.992730        -1.367682         1.117268
 C         2.840377        -0.412716         2.045181
 O         4.111706        -0.506361         2.575090
 H         3.693902         2.267209         1.110781
 H         3.232040         1.594312        -0.447095
 H         2.000413         2.575067         0.200995
 H         1.662382         0.961013         3.601428
 H        -0.563823        -0.837425        -0.200031
 H        -0.309396         1.067971        -0.317031
 H         0.693571         0.042682        -1.280907
 H         1.530690        -2.361552         1.388439
 H         2.590845        -1.496246         0.132288
 H         4.681079        -0.830248         1.863143
