19
Iteration:  1011
 C         3.010126         2.119115         0.565374
 C         2.340000         0.933243         1.219059
 C         1.786248         0.683722         2.531061
 O         0.430052         0.172687         2.126528
 C         1.054413        -0.147599         0.825671
 C         0.078171        -0.140902        -0.329919
 C         1.942440        -1.367776         1.162914
 C         2.806951        -0.401564         1.998927
 O         4.060725        -0.656756         2.630318
 H         3.902908         2.490679         1.135989
 H         3.296159         1.913472        -0.513745
 H         2.262243         2.859268         0.468335
 H         1.749726         1.183511         3.441747
 H        -0.668582        -0.699187         0.225490
 H        -0.316600         0.818848        -0.611410
 H         0.351357        -0.732733        -1.151450
 H         1.385493        -2.116862         1.636380
 H         2.553477        -1.643002         0.286431
 H         4.777366        -0.550891         2.010579
