19
Iteration:  3188charge 0 multiplicity 1
 C         2.884853         1.850984         0.108193
 C         2.479062         0.819970         1.116120
 C         1.853273         0.809179         2.515099
 O         0.514558         0.466938         2.139097
 C         1.076264        -0.129289         0.913524
 C         0.166582        -0.194882        -0.226677
 C         1.842247        -1.346587         1.386104
 C         2.773274        -0.399346         2.113007
 O         4.029915        -0.712418         2.632258
 H         3.459788         2.678742         0.572872
 H         3.445626         1.572134        -0.787001
 H         1.874991         2.436497        -0.173281
 H         1.991379         1.481649         3.327603
 H        -0.623741        -1.083632        -0.186204
 H        -0.382692         0.758234        -0.301561
 H         0.845346        -0.090213        -1.214705
 H         1.065744        -1.976746         1.960854
 H         2.322821        -1.897646         0.511148
 H         3.760280        -0.947098         3.556896
