19
Iteration:  3098charge 0 multiplicity 1
 C         3.238661         1.590143         0.336384
 C         2.287834         0.769474         1.101576
 C         1.733819         0.766119         2.476342
 O         0.458417         0.361492         2.116977
 C         0.976234        -0.102120         0.909726
 C        -0.045067        -0.060419        -0.245984
 C         1.934203        -1.443093         1.394035
 C         2.755881        -0.370821         2.047569
 O         4.113196        -0.345787         2.511944
 H         4.248452         1.677879         0.922833
 H         3.458084         1.278164        -0.663769
 H         2.865475         2.603634         0.364131
 H         1.958360         1.424829         3.477550
 H        -0.963116        -0.564709         0.208893
 H        -0.270524         1.028548        -0.507727
 H         0.285706        -0.591308        -1.171853
 H         1.429535        -2.331853         1.923552
 H         2.536412        -1.809958         0.457481
 H         4.091938        -0.822103         3.392999
