19
Iteration:  3968charge 0 multiplicity 1
 C         3.090326         1.720563         0.173387
 C         2.355615         0.750855         1.090158
 C         1.887218         0.820065         2.442816
 O         0.536331         0.504793         2.250830
 C         1.046914        -0.039408         0.946766
 C         0.096052        -0.119687        -0.132228
 C         1.738979        -1.424537         1.443302
 C         2.736671        -0.332256         2.022868
 O         4.020745        -0.665899         2.444200
 H         2.980491         1.575708        -0.909840
 H         2.652699         2.712221         0.378699
 H         4.266593         1.759423         0.374899
 H         1.911523         1.465062         3.312068
 H        -0.626873        -0.932794         0.073603
 H        -0.273012         0.861465        -0.389988
 H         0.728123        -0.352961        -0.977911
 H         1.105367        -2.347679         1.892182
 H         2.311086        -1.961120         0.581412
 H         3.978456        -0.776378         3.407821
