19
Iteration:  3517charge 0 multiplicity 1
 C         3.204553         1.514621         0.240452
 C         2.276365         0.811287         1.153447
 C         1.681812         0.820775         2.544428
 O         0.429857         0.328065         2.212269
 C         1.012472        -0.137050         0.957322
 C         0.034910        -0.115708        -0.325534
 C         1.951308        -1.331570         1.321397
 C         2.755790        -0.277912         2.124893
 O         4.124321        -0.430461         2.476569
 H         4.175217         1.376599         0.589103
 H         3.258376         1.188517        -0.814794
 H         3.110497         2.695141         0.297399
 H         1.898354         1.490136         3.322777
 H        -1.001257        -0.540981         0.107893
 H        -0.189136         0.872964        -0.677460
 H         0.299218        -0.761332        -1.248069
 H         1.395800        -2.088650         1.970846
 H         2.517678        -1.623406         0.505371
 H         4.027588        -0.451781         3.438614
