19
Iteration:  4657
 C         3.014849         1.775956         0.243513
 C         2.475366         0.695708         1.047344
 C         1.930452         0.797595         2.471846
 O         0.532910         0.455217         2.198757
 C         1.041743        -0.071097         0.824803
 C        -0.014016        -0.177561        -0.233077
 C         1.782525        -1.349368         1.404167
 C         2.771532        -0.351675         2.020601
 O         4.036365        -0.580179         2.638513
 H         2.240187         2.323848        -0.351031
 H         3.489727         2.533721         0.912575
 H         3.787212         1.454568        -0.570428
 H         2.208625         1.445364         3.310685
 H        -0.597251        -1.161587        -0.057279
 H        -0.806027         0.644658        -0.085785
 H         0.460791        -0.282760        -1.225695
 H         1.099066        -1.999941         1.960666
 H         2.341927        -1.863521         0.554717
 H         4.012681        -0.997374         3.513727
