19
Iteration:  1766charge 0 multiplicity 1
 C         2.963561         1.780930         0.224749
 C         2.376796         0.793700         1.156880
 C         1.837904         0.716321         2.529195
 O         0.425580         0.467091         2.198206
 C         1.070290        -0.097977         0.843715
 C         0.089493        -0.188766        -0.240498
 C         1.919744        -1.414160         1.180669
 C         2.749778        -0.413431         2.077249
 O         4.050018        -0.543483         2.767371
 H         3.914567         2.105183         0.633866
 H         3.206184         1.300939        -0.803462
 H         2.305583         2.631181         0.001633
 H         2.151054         1.252413         3.397809
 H        -0.467671        -1.094653        -0.305646
 H        -0.586418         0.652173         0.041022
 H         0.586154         0.005893        -1.202186
 H         1.294711        -2.164738         1.643179
 H         2.488943        -1.586805         0.277560
 H         4.769879        -0.072272         2.327945
