19
Iteration:     9
 C         2.960810         2.037559         0.603550
 C         2.284104         0.884258         1.237339
 C         1.758600         0.579184         2.614197
 O         0.465960         0.167915         2.132463
 C         1.107566        -0.075677         0.841163
 C         0.085315        -0.009464        -0.231044
 C         1.977430        -1.391340         0.991875
 C         2.780966        -0.428985         2.007391
 O         4.058263        -0.567097         2.449646
 H         3.730752         2.459716         1.311622
 H         3.364020         1.812432        -0.491249
 H         2.199071         2.725281         0.524117
 H         1.971920         0.971137         3.683700
 H        -0.320450        -0.984742        -0.064911
 H        -0.581096         0.922601        -0.253105
 H         0.585296        -0.159722        -1.243417
 H         1.721055        -2.230802         1.543178
 H         2.762722        -1.560352         0.226037
 H         4.086733        -0.794358         3.377114
