19
Iteration:  1266charge 0 multiplicity 1
 C         3.048097         1.935424         0.390822
 C         2.287587         0.838980         1.083755
 C         1.746061         0.761508         2.515240
 O         0.458976         0.147569         2.191196
 C         1.070526        -0.146453         0.870309
 C         0.097818        -0.030143        -0.271783
 C         1.959230        -1.400573         1.244502
 C         2.723792        -0.332784         2.062979
 O         4.072182        -0.531771         2.645658
 H         3.869523         2.242277         1.003290
 H         3.473423         1.474487        -0.504722
 H         2.330108         2.765745         0.071407
 H         1.726831         1.226018         3.447468
 H        -0.760298        -0.606259        -0.004255
 H        -0.149549         0.999834        -0.490761
 H         0.426191        -0.494544        -1.234518
 H         1.538684        -2.256766         1.819037
 H         2.650796        -1.615343         0.429877
 H         4.562567        -1.174567         2.042200
