19
Iteration:  4011
 C         2.904645         1.691553        -0.013634
 C         2.370172         0.743528         1.134484
 C         1.852493         0.850583         2.522680
 O         0.516966         0.464058         2.221654
 C         1.030249        -0.044810         1.012285
 C         0.052744         0.067672        -0.210769
 C         1.851973        -1.346648         1.308031
 C         2.820676        -0.435410         1.998015
 O         4.116616        -0.767297         2.662483
 H         3.574562         1.226164        -0.700750
 H         2.077651         2.203083        -0.481125
 H         3.644619         2.462937         0.503168
 H         2.237189         1.270879         3.457976
 H        -0.881048        -0.381257         0.278879
 H        -0.008959         1.055011        -0.692841
 H         0.435479        -0.598400        -1.047523
 H         1.416250        -2.028707         2.172002
 H         2.294840        -1.983580         0.461856
 H         3.849568        -0.764867         3.601441
