19
Iteration:  1279charge 0 multiplicity 1
 C         3.063318         1.915693         0.334725
 C         2.271644         0.912875         1.148648
 C         1.779087         0.703760         2.500376
 O         0.485750         0.135290         2.204383
 C         1.024390        -0.226756         0.891011
 C         0.086502        -0.057218        -0.248127
 C         1.969997        -1.336740         1.234199
 C         2.834189        -0.317996         1.983709
 O         3.945640        -0.587060         2.697963
 H         3.859053         2.413411         0.929737
 H         3.558986         1.543564        -0.552362
 H         2.424127         2.895020        -0.002087
 H         2.046926         1.392817         3.229976
 H        -0.854684        -0.614976        -0.258539
 H        -0.151062         1.041055        -0.249652
 H         0.756351        -0.268264        -1.141969
 H         1.430843        -2.233781         1.777476
 H         2.385554        -1.812469         0.359776
 H         4.651693        -0.337593         2.058171
