19
Iteration:  4107
 C         3.319609         1.618922         0.343960
 C         2.306818         0.789593         1.092986
 C         1.951172         0.856936         2.559816
 O         0.486611         0.514505         2.302329
 C         1.004893        -0.068391         0.957993
 C        -0.034974        -0.194779        -0.175775
 C         1.721213        -1.303552         1.324953
 C         2.672727        -0.380972         2.059526
 O         4.027123        -0.603087         2.256414
 H         4.320763         1.337340         0.629137
 H         3.220648         1.330600        -0.693462
 H         3.122945         2.758780         0.420086
 H         2.054123         1.690601         3.267520
 H        -0.602348        -1.151425         0.059645
 H        -0.696369         0.675435        -0.335943
 H         0.665481        -0.412680        -1.096372
 H         1.226476        -2.000230         1.913701
 H         2.154870        -1.803293         0.519931
 H         4.378789        -0.884153         3.120171
