19
Iteration:  2977
 C         2.897373         1.808104         0.093938
 C         2.354857         0.781033         1.100395
 C         1.812183         0.791866         2.467393
 O         0.504739         0.347760         2.160738
 C         1.035216        -0.173740         0.961627
 C         0.197532         0.081837        -0.319546
 C         1.819853        -1.449531         1.457410
 C         2.844217        -0.366626         2.069730
 O         4.111772        -0.664528         2.672280
 H         3.710023         2.489959         0.539478
 H         3.124116         1.478239        -0.913899
 H         2.044279         2.389994        -0.095466
 H         1.909297         1.553883         3.331010
 H        -0.783808        -0.427805        -0.244923
 H        -0.142372         1.133033        -0.543337
 H         0.692347        -0.382568        -1.131908
 H         1.289208        -1.961983         2.121894
 H         2.302291        -2.098869         0.772186
 H         3.832951        -0.860070         3.577936
