19
Iteration:  3576charge 0 multiplicity 1
 C         3.022982         1.815783         0.211886
 C         2.392330         0.695571         1.065843
 C         1.918670         0.700651         2.452249
 O         0.535650         0.489343         2.135717
 C         0.956671        -0.092085         0.931343
 C         0.060569        -0.262703        -0.313697
 C         1.824543        -1.293709         1.408123
 C         2.801946        -0.403179         2.019356
 O         4.051040        -0.503071         2.707016
 H         4.198662         1.888943         0.273433
 H         2.676989         1.652402        -0.841235
 H         2.510861         2.795919         0.536327
 H         2.318776         1.471849         3.204876
 H        -0.558601        -1.111365        -0.229642
 H        -0.642255         0.626271        -0.266669
 H         0.605597        -0.258990        -1.194371
 H         1.159136        -1.878789         2.105635
 H         2.057000        -2.168650         0.683363
 H         3.929151        -0.788899         3.652504
