19
Iteration:  2008charge 0 multiplicity 1
 C         3.019931         1.747835         0.251596
 C         2.344740         0.720170         1.167125
 C         1.711555         0.739843         2.580893
 O         0.346515         0.407133         2.089517
 C         1.073923        -0.192389         0.874627
 C         0.158232        -0.082366        -0.243567
 C         1.916866        -1.364099         1.381434
 C         2.781355        -0.289300         2.165330
 O         4.139587        -0.487747         2.463399
 H         3.856128         2.084996         0.804017
 H         3.401947         1.256979        -0.706594
 H         2.508899         2.668909         0.161484
 H         1.774611         1.326785         3.626050
 H        -0.539245        -0.950334        -0.164111
 H        -0.390654         0.861690        -0.372869
 H         0.827581        -0.081949        -1.135542
 H         1.393902        -2.173747         2.029173
 H         2.557983        -1.736611         0.591017
 H         4.116566        -1.388683         2.897707
