19
Iteration:  2164
 C         2.852956         1.890392         0.187460
 C         2.388742         0.760141         1.149029
 C         1.757661         0.840846         2.540161
 O         0.480213         0.457309         2.187119
 C         1.080048        -0.190210         0.880837
 C         0.256838        -0.179989        -0.351327
 C         1.824207        -1.389611         1.424010
 C         2.833341        -0.379589         2.138310
 O         4.070666        -0.646455         2.543027
 H         3.815240         2.323374         0.576419
 H         3.136973         1.523189        -0.844093
 H         2.118523         2.619074         0.184862
 H         2.012469         1.302794         3.506039
 H        -0.464822        -1.065729        -0.395602
 H        -0.406517         0.732965        -0.333392
 H         0.931550        -0.072327        -1.231548
 H         1.115779        -2.064653         1.976586
 H         2.257546        -1.869275         0.471395
 H         4.115396        -0.699987         3.496390
