19
Iteration:  4790
 C         3.059038         1.818263         0.171182
 C         2.413703         0.765836         1.074496
 C         1.839504         0.887351         2.475585
 O         0.498155         0.345099         2.218491
 C         1.058514        -0.129455         0.839517
 C         0.007932        -0.209503        -0.272843
 C         1.829457        -1.262624         1.440280
 C         2.784420        -0.308657         2.086821
 O         4.063021        -0.640808         2.626109
 H         3.993484         2.343879         0.635607
 H         3.346030         1.182518        -0.757894
 H         2.246893         2.458132        -0.151770
 H         2.083258         1.718490         3.140548
 H        -0.806353        -1.002934         0.144124
 H        -0.426198         0.675068        -0.722504
 H         0.494838        -0.797680        -1.210787
 H         1.154987        -1.931477         1.955494
 H         2.396488        -1.921931         0.804418
 H         3.999839        -0.796347         3.581460
