19
Iteration:  4789
 C         3.065629         1.813242         0.166246
 C         2.420605         0.774108         1.085718
 C         1.838698         0.887867         2.474395
 O         0.492914         0.341898         2.216544
 C         1.051162        -0.131359         0.840582
 C         0.007024        -0.211589        -0.271475
 C         1.830291        -1.272171         1.444118
 C         2.796217        -0.310467         2.084085
 O         4.058536        -0.634260         2.621877
 H         3.950673         2.339555         0.644721
 H         3.359623         1.198279        -0.722443
 H         2.246943         2.456909        -0.176829
 H         2.085586         1.718787         3.135784
 H        -0.833986        -0.974744         0.124239
 H        -0.401306         0.704172        -0.705340
 H         0.476661        -0.780837        -1.212128
 H         1.161255        -1.907239         1.955451
 H         2.401559        -1.940319         0.795024
 H         3.987391        -0.801959         3.575483
