19
Iteration:  1177charge 0 multiplicity 1
 C         2.968052         2.002459         0.427688
 C         2.314375         0.823721         1.131007
 C         1.731399         0.677652         2.571977
 O         0.412723         0.258228         2.172899
 C         1.124083        -0.125069         0.810265
 C         0.133764        -0.082650        -0.297143
 C         1.946635        -1.420802         1.214071
 C         2.816882        -0.326481         2.049024
 O         4.085898        -0.594053         2.611302
 H         3.729007         2.490967         1.052104
 H         3.252554         1.909729        -0.669082
 H         2.186036         2.868388         0.351708
 H         1.873978         1.438718         3.470168
 H        -0.613466        -0.876360        -0.202427
 H        -0.379112         0.857639        -0.301324
 H         0.694699        -0.211494        -1.207186
 H         1.461499        -2.157772         1.861619
 H         2.548218        -1.993031         0.422096
 H         4.214948        -1.614732         2.505254
