19
Iteration:  2715
 C         3.192890         1.804502         0.293189
 C         2.310239         0.785758         1.017163
 C         1.743121         0.824425         2.543399
 O         0.442923         0.347817         2.235500
 C         1.069596        -0.182846         0.888960
 C         0.060119        -0.133942        -0.236322
 C         1.852809        -1.351517         1.382303
 C         2.797812        -0.304244         2.073435
 O         4.055553        -0.620258         2.481953
 H         4.104085         1.989305         0.783767
 H         3.390559         1.622607        -0.803403
 H         2.609882         2.641780         0.181929
 H         2.049284         1.487383         3.429535
 H        -0.802171        -0.751628        -0.152205
 H        -0.291485         0.893738        -0.287041
 H         0.496154        -0.327257        -1.181755
 H         1.158276        -2.197561         1.824373
 H         2.278327        -1.718433         0.423336
 H         4.080266        -0.662628         3.465687
