19
Iteration:  4826charge 0 multiplicity 1
 C         3.023189         1.881162         0.227916
 C         2.420430         0.790151         1.079699
 C         1.872290         0.829196         2.469369
 O         0.439892         0.622716         2.116277
 C         1.039212        -0.199512         0.987876
 C         0.134895        -0.328255        -0.187398
 C         1.876129        -1.436459         1.386978
 C         2.807638        -0.344741         1.941824
 O         3.973737        -0.687823         2.653919
 H         4.092935         2.083410        -0.062052
 H         2.534511         1.603979        -0.830142
 H         2.599259         2.890057         0.354895
 H         2.195648         1.498748         3.272412
 H        -0.540224        -1.192796        -0.087602
 H        -0.534062         0.570836        -0.386277
 H         0.849806        -0.566500        -0.975999
 H         1.501250        -2.086848         2.262424
 H         2.241276        -1.805153         0.448056
 H         3.725584        -0.323410         3.516983
