19
Iteration:  4432charge 0 multiplicity 1
 C         2.905143         1.805102         0.217109
 C         2.422273         0.681702         1.060581
 C         1.872052         0.790995         2.470178
 O         0.523389         0.545181         2.157852
 C         1.014952        -0.072715         0.975330
 C         0.009477        -0.035136        -0.249132
 C         1.792032        -1.351305         1.488026
 C         2.916984        -0.369312         2.030955
 O         4.125290        -0.788503         2.568066
 H         3.691165         1.514236        -0.553942
 H         2.037149         2.122791        -0.479219
 H         3.378017         2.641181         0.585880
 H         1.946280         1.437762         3.344533
 H        -0.925618        -0.687459        -0.245933
 H        -0.268603         0.976212        -0.618718
 H         0.463371        -0.385732        -1.283849
 H         1.346446        -1.825819         2.284655
 H         2.221341        -2.035519         0.790076
 H         3.915611        -1.328305         3.357916
