19
Iteration:  4756charge 0 multiplicity 1
 C         3.117898         1.644852         0.201574
 C         2.302907         0.648233         1.067496
 C         1.812294         0.723090         2.481256
 O         0.376193         0.468375         2.151403
 C         1.020089        -0.155825         0.946969
 C         0.127997        -0.028726        -0.150384
 C         1.913357        -1.453471         1.417937
 C         2.807716        -0.380162         2.036071
 O         4.026302        -0.339206         2.532799
 H         3.445403         2.521751         0.853077
 H         4.029275         1.058112        -0.176008
 H         2.622081         2.079242        -0.712380
 H         2.192313         1.372924         3.270250
 H        -0.934688        -0.464375         0.195946
 H        -0.068217         1.022185        -0.454973
 H         0.493365        -0.766185        -0.996966
 H         1.357308        -2.167842         1.949988
 H         2.504486        -1.785008         0.552178
 H         4.053674        -0.975923         3.268688
