19
Iteration:   487charge 0 multiplicity 1
 C         3.108318         1.927838         0.404366
 C         2.335131         0.914607         1.151464
 C         1.846706         0.599735         2.520301
 O         0.467340         0.122329         2.260197
 C         0.946559        -0.181134         0.909767
 C         0.119072         0.016159        -0.260402
 C         1.890255        -1.330997         1.157082
 C         2.820734        -0.317946         1.883341
 O         3.951355        -0.577733         2.690898
 H         3.880478         2.558495         0.903907
 H         3.314568         1.650140        -0.569898
 H         2.307023         2.774465         0.175520
 H         2.002305         0.981985         3.547320
 H        -0.742139        -0.636573        -0.261838
 H        -0.230580         1.041920        -0.513667
 H         0.868962        -0.289057        -1.062509
 H         1.518268        -2.169608         1.761097
 H         2.287535        -1.812774         0.267401
 H         4.654254        -0.435327         2.066233
