19
Iteration:   970charge 0 multiplicity 1
 C         2.914163         2.061596         0.501719
 C         2.377493         0.825874         1.223689
 C         1.804891         0.662133         2.583909
 O         0.415292         0.203069         2.156699
 C         1.058110        -0.111931         0.873825
 C         0.119639        -0.068762        -0.338355
 C         1.979810        -1.368768         1.140130
 C         2.814435        -0.376895         2.002537
 O         4.052361        -0.581807         2.564388
 H         3.728311         2.466212         1.108255
 H         3.383162         1.815305        -0.417122
 H         2.141364         2.844904         0.254911
 H         2.092443         1.063584         3.469543
 H        -0.558403        -1.016301        -0.248481
 H        -0.572241         0.815014        -0.338098
 H         0.638201        -0.185785        -1.294244
 H         1.766147        -2.401089         1.504413
 H         2.539230        -1.517053         0.136190
 H         3.904281        -1.378342         3.149397
