19
Iteration:  4409charge 0 multiplicity 1
 C         2.860129         1.802910         0.110030
 C         2.391375         0.666586         1.082085
 C         1.945619         0.789176         2.461354
 O         0.559865         0.464399         2.207056
 C         1.095217        -0.075001         0.932360
 C         0.156145         0.018935        -0.200106
 C         1.741822        -1.437760         1.465745
 C         2.787572        -0.472578         2.120506
 O         4.040910        -0.627627         2.559958
 H         3.864328         1.547834        -0.372336
 H         2.188758         2.098603        -0.790007
 H         3.174059         2.666891         0.586106
 H         2.341215         1.528951         3.149529
 H        -0.930599        -0.227523         0.134388
 H         0.136324         1.103388        -0.406462
 H         0.189233        -0.384538        -1.280784
 H         1.028936        -2.020877         1.953010
 H         2.010399        -1.954915         0.568107
 H         4.027091        -1.328241         3.238650
