19
Iteration:  1724
 C         3.040667         1.828765         0.222047
 C         2.232083         0.821421         1.093193
 C         1.793339         0.758313         2.532314
 O         0.409466         0.346688         2.268529
 C         1.104054        -0.249024         0.840812
 C         0.140492        -0.096461        -0.303368
 C         1.956979        -1.350723         1.412040
 C         2.829103        -0.264255         2.049832
 O         4.019089        -0.644605         2.524694
 H         3.901284         2.123204         0.761294
 H         3.451046         1.241293        -0.722935
 H         2.544880         2.701524        -0.069644
 H         2.036693         1.358532         3.379402
 H        -0.589879        -0.882395        -0.288879
 H        -0.497159         0.811199        -0.219566
 H         0.655278        -0.032481        -1.253057
 H         1.341314        -1.916513         2.158782
 H         2.489609        -1.930931         0.678484
 H         4.014308        -0.162034         3.431028
