19
Iteration:  1770charge 0 multiplicity 1
 C         2.969663         1.769587         0.221017
 C         2.350470         0.776169         1.151017
 C         1.798821         0.713845         2.521128
 O         0.468427         0.464745         2.205501
 C         1.047981        -0.073989         0.846804
 C         0.104809        -0.188605        -0.257250
 C         1.945381        -1.412288         1.214776
 C         2.760644        -0.374708         2.041628
 O         4.038745        -0.551893         2.784853
 H         3.892719         2.161954         0.657186
 H         3.226509         1.314862        -0.778144
 H         2.323676         2.621597         0.119547
 H         2.153343         1.170101         3.438040
 H        -0.542657        -1.106436        -0.205651
 H        -0.570662         0.620902        -0.024705
 H         0.529193         0.084598        -1.215884
 H         1.349915        -2.262103         1.617729
 H         2.450728        -1.631977         0.281642
 H         4.704108        -0.171397         2.119980
