19
Iteration:  2050
 C         3.146262         1.747156         0.313371
 C         2.277014         0.825945         1.003856
 C         1.762092         0.672656         2.570409
 O         0.509987         0.297111         2.248238
 C         0.997055        -0.067714         0.907720
 C         0.096292        -0.173775        -0.264987
 C         1.932495        -1.354109         1.287669
 C         2.731098        -0.342997         2.020476
 O         4.012656        -0.434181         2.542517
 H         3.896550         2.055147         1.033182
 H         3.748698         1.280851        -0.439999
 H         2.598729         2.615102        -0.188405
 H         2.030875         1.219956         3.594425
 H        -0.908278        -0.561678        -0.032005
 H        -0.119360         0.791753        -0.778804
 H         0.638999        -0.796019        -1.001002
 H         1.209862        -2.008545         1.795314
 H         2.609878        -1.650010         0.502402
 H         3.987864        -0.509694         3.508546
