19
Iteration:   361
 C         2.892609         1.894755         0.364605
 C         2.306011         0.818575         1.210727
 C         1.745574         0.523957         2.630277
 O         0.464765         0.182461         2.056562
 C         1.087163        -0.110139         0.838278
 C         0.017087         0.146866        -0.200637
 C         2.111197        -1.335923         1.120327
 C         2.819363        -0.403924         1.999820
 O         4.050695        -0.584570         2.745651
 H         3.763027         2.394187         0.707233
 H         3.165333         1.754437        -0.740189
 H         2.237267         2.646489         0.359352
 H         2.105801         1.001991         3.565329
 H        -1.000469        -0.398927        -0.096123
 H        -0.186806         1.195487        -0.109932
 H         0.297612         0.019058        -1.217822
 H         1.531401        -2.174997         1.552974
 H         2.780105        -1.503333         0.203695
 H         4.677301        -0.995456         2.099138
