19
Iteration:   630charge 0 multiplicity 1
 C         2.966295         1.955267         0.559422
 C         2.378957         0.820845         1.276044
 C         1.787937         0.687829         2.656325
 O         0.420613         0.419262         1.995166
 C         1.124413        -0.027959         0.830254
 C         0.062811        -0.220667        -0.218635
 C         1.916174        -1.395950         1.131315
 C         2.775699        -0.404291         2.082613
 O         4.100755        -0.690871         2.485722
 H         3.710082         2.404213         1.254059
 H         3.315778         1.720414        -0.373062
 H         2.245765         2.881019         0.433103
 H         1.752721         1.105561         3.635100
 H        -0.598771        -1.087323         0.019883
 H        -0.505089         0.631238        -0.614058
 H         0.651716        -0.387962        -1.150147
 H         1.280316        -2.148488         1.637041
 H         2.495453        -1.872495         0.295078
 H         4.532238         0.040412         2.069600
