19
Iteration:   471
 C         3.009156         1.993253         0.510082
 C         2.334518         0.774852         1.151592
 C         1.785613         0.630872         2.583376
 O         0.471039         0.277145         2.234978
 C         1.034894        -0.088506         0.903091
 C         0.064982        -0.040143        -0.390765
 C         1.898003        -1.433688         1.215896
 C         2.800986        -0.467786         1.937097
 O         4.058257        -0.495462         2.585936
 H         3.729562         2.241615         1.277539
 H         3.596559         1.642606        -0.414018
 H         2.424565         2.823551         0.323388
 H         2.014157         1.180380         3.482720
 H        -0.738148        -0.812595        -0.325766
 H        -0.345011         0.963317        -0.438194
 H         0.575897        -0.203520        -1.316582
 H         1.377134        -2.244739         1.775238
 H         2.335262        -1.807229         0.252548
 H         4.786935        -0.791978         2.041816
