19
Iteration:  3535charge 0 multiplicity 1
 C         3.181921         1.640433         0.254906
 C         2.292739         0.828613         1.045883
 C         1.762469         0.876115         2.511351
 O         0.421898         0.325013         2.158021
 C         1.060917        -0.130056         0.884424
 C         0.092345        -0.171893        -0.151812
 C         1.962029        -1.355562         1.401619
 C         2.703412        -0.268809         2.143653
 O         4.008663        -0.540804         2.473613
 H         4.302246         1.291219         0.369923
 H         2.916749         1.388210        -0.769052
 H         2.957682         2.626330         0.216964
 H         1.724591         1.635137         3.353828
 H        -0.832319        -0.677408        -0.087436
 H        -0.205049         0.940717        -0.335347
 H         0.603260        -0.571519        -1.070476
 H         1.599136        -2.248927         1.953430
 H         2.624665        -1.508596         0.458291
 H         4.111770        -0.519492         3.432299
