19
Iteration:  3240charge 0 multiplicity 1
 C         3.177358         1.827610         0.292321
 C         2.428145         0.741559         1.041637
 C         1.789640         0.857177         2.421536
 O         0.452376         0.373562         2.158572
 C         0.977756        -0.228785         0.954709
 C         0.055631        -0.159124        -0.200431
 C         1.848783        -1.397682         1.410402
 C         2.732838        -0.371205         2.025174
 O         4.035201        -0.517327         2.529591
 H         3.913646         2.444068         0.905599
 H         3.846276         1.257765        -0.297212
 H         2.699982         2.591921        -0.210417
 H         1.983161         1.532713         3.268441
 H        -0.684092        -0.836079         0.057378
 H        -0.324884         0.818939        -0.154554
 H         0.431733        -0.303873        -1.161610
 H         1.299653        -2.232866         1.889490
 H         2.472949        -1.786439         0.552151
 H         3.803590        -0.494821         3.499839
