19
Iteration:    97
 C         2.806407         2.032157         0.632171
 C         2.319415         0.809552         1.252591
 C         1.753000         0.587374         2.572545
 O         0.466142         0.246337         2.118617
 C         1.052375        -0.051027         0.880685
 C         0.111817         0.025342        -0.335436
 C         1.992921        -1.360942         1.155264
 C         2.857077        -0.476778         1.995000
 O         4.141917        -0.706531         2.485386
 H         3.581023         2.528758         1.306369
 H         3.283348         1.805139        -0.427582
 H         2.059707         2.744412         0.496045
 H         1.739437         1.169585         3.453383
 H        -0.173541        -0.967155        -0.591216
 H        -0.746419         0.715988        -0.210816
 H         0.577696         0.293155        -1.329188
 H         1.612827        -2.164855         1.765951
 H         2.418139        -1.772539         0.192237
 H         4.573173         0.132944         2.557563
