19
Iteration:   356charge 0 multiplicity 1
 C         2.884302         1.879949         0.362592
 C         2.316160         0.801374         1.193350
 C         1.764266         0.550379         2.615863
 O         0.432552         0.115486         2.070971
 C         1.083046        -0.099479         0.799937
 C         0.006203         0.224062        -0.193603
 C         2.141938        -1.368165         1.150350
 C         2.823819        -0.361421         1.992007
 O         4.060709        -0.587445         2.755312
 H         3.859521         2.357688         0.721212
 H         3.107999         1.567033        -0.660806
 H         2.115520         2.809458         0.302350
 H         2.002020         1.040102         3.580718
 H        -0.852270        -0.395898        -0.077712
 H        -0.166119         1.330839        -0.090396
 H         0.316728         0.004292        -1.276763
 H         1.595186        -2.161442         1.670537
 H         2.749098        -1.617681         0.286639
 H         4.509934        -0.989338         1.997034
