19
Iteration:   695charge 0 multiplicity 1
 C         3.033433         1.895624         0.353672
 C         2.320167         0.774563         1.173627
 C         1.750506         0.591758         2.641679
 O         0.421149         0.116550         2.195758
 C         1.124906        -0.123522         0.817146
 C         0.038208         0.092699        -0.241889
 C         2.006366        -1.390113         1.081414
 C         2.784592        -0.329844         1.983053
 O         4.018388        -0.459441         2.707784
 H         3.860741         2.251301         1.032331
 H         3.506707         1.639451        -0.610940
 H         2.313854         2.802210         0.239846
 H         1.968069         1.363734         3.393696
 H        -0.816010        -0.620749        -0.112147
 H        -0.368089         1.120377        -0.249631
 H         0.549529        -0.173111        -1.218486
 H         1.492941        -2.230865         1.587354
 H         2.536628        -1.686021         0.139030
 H         4.587913        -1.193302         2.357556
