19
Iteration:  2544charge 0 multiplicity 1
 C         2.859824         1.874515         0.154973
 C         2.388864         0.770301         1.040829
 C         1.807090         0.756980         2.517394
 O         0.467345         0.401843         2.185488
 C         1.086331        -0.085942         0.902284
 C         0.194993        -0.055013        -0.243624
 C         1.840737        -1.337743         1.369302
 C         2.815972        -0.377481         2.068772
 O         4.086838        -0.712314         2.666290
 H         3.781969         2.263275         0.369151
 H         3.025470         1.501592        -0.805435
 H         2.244225         2.824160         0.072565
 H         1.941040         1.614999         3.228356
 H        -0.648667        -0.820389        -0.096900
 H        -0.252463         0.955390        -0.473230
 H         0.722740        -0.400140        -1.129611
 H         1.332587        -2.189570         1.977797
 H         2.425598        -2.102857         0.806336
 H         4.006946        -1.298590         3.416600
