19
Iteration:   501charge 0 multiplicity 1
 C         3.010348         1.964953         0.256836
 C         2.257347         0.927418         1.182424
 C         1.796304         0.622231         2.583445
 O         0.488673         0.074508         2.237458
 C         1.087512        -0.065138         0.918961
 C         0.146984         0.025016        -0.215287
 C         2.004084        -1.327043         1.116286
 C         2.790985        -0.371617         1.946995
 O         3.878878        -0.640114         2.699257
 H         3.974550         2.077532         0.779905
 H         3.469374         1.353052        -0.585515
 H         2.501932         2.934114        -0.074789
 H         2.031479         1.068576         3.479163
 H        -0.859741        -0.539058        -0.110345
 H        -0.125303         1.072238        -0.183593
 H         0.561680        -0.236217        -1.173891
 H         1.463631        -2.075457         1.633576
 H         2.553382        -1.591819         0.165780
 H         4.782294        -0.408352         2.328656
