19
Iteration:  1626charge 0 multiplicity 1
 C         3.081743         1.833211         0.291587
 C         2.267665         0.826588         1.006169
 C         1.792114         0.860745         2.459135
 O         0.567557         0.213458         2.198108
 C         1.052481        -0.092222         0.915426
 C         0.052231        -0.122157        -0.226748
 C         1.952980        -1.407715         1.360400
 C         2.700403        -0.290250         2.057104
 O         4.000847        -0.603746         2.567040
 H         3.873593         2.090934         0.922220
 H         3.496372         1.338368        -0.676757
 H         2.551025         2.668335         0.001898
 H         1.937685         1.670522         3.290888
 H        -0.958895        -0.490699        -0.005015
 H        -0.118067         0.905615        -0.689897
 H         0.468085        -0.774719        -1.021140
 H         1.428835        -2.136492         2.027513
 H         2.737729        -1.729712         0.678457
 H         4.059798        -0.673031         3.579300
