19
Iteration:  4442
 C         2.950850         1.821800         0.187539
 C         2.423786         0.748630         1.103237
 C         1.892846         0.809854         2.491985
 O         0.487954         0.545313         2.154027
 C         0.992254        -0.070618         0.940050
 C         0.050611        -0.109858        -0.243985
 C         1.869440        -1.331350         1.522465
 C         2.857804        -0.401859         1.990441
 O         4.071688        -0.803059         2.528904
 H         3.617531         1.275886        -0.544023
 H         2.095201         2.401399        -0.351506
 H         3.446924         2.499997         0.791024
 H         2.217928         1.557489         3.213846
 H        -0.876166        -0.782607        -0.009887
 H        -0.366270         0.912135        -0.233138
 H         0.683534        -0.410794        -1.177892
 H         1.303915        -1.919845         2.188786
 H         2.021342        -1.873634         0.616388
 H         3.827175        -1.207478         3.385824
