19
Iteration:   153
 C         2.857569         1.975119         0.423796
 C         2.180653         0.945142         1.270701
 C         1.814610         0.598895         2.667977
 O         0.474635        -0.073870         2.301150
 C         1.070072        -0.152177         0.870608
 C         0.285210         0.184126        -0.368920
 C         1.949409        -1.342938         1.102919
 C         2.795968        -0.296431         2.012656
 O         4.006963        -0.655657         2.484559
 H         3.819652         2.265824         0.923960
 H         3.169578         1.456154        -0.590664
 H         2.253827         2.830093         0.213016
 H         1.742859         1.039069         3.632165
 H        -0.762572        -0.096640        -0.344331
 H         0.287270         1.255733        -0.551989
 H         0.812967        -0.266404        -1.226201
 H         1.465547        -2.098197         1.643103
 H         2.648381        -1.717237         0.321695
 H         4.774577        -0.031402         2.370185
