19
Iteration:  4059charge 0 multiplicity 1
 C         3.098831         1.677226         0.160484
 C         2.388071         0.742478         1.056710
 C         1.871662         0.738704         2.445662
 O         0.496149         0.435432         2.233291
 C         1.024231        -0.064877         0.982227
 C        -0.069587         0.050315        -0.202681
 C         1.772151        -1.428072         1.457751
 C         2.807664        -0.386248         1.997015
 O         4.139315        -0.589550         2.546320
 H         4.125910         1.238197        -0.064686
 H         2.477662         1.774745        -0.780725
 H         3.262819         2.612644         0.574547
 H         2.102248         1.442439         3.250697
 H        -0.944014        -0.390329         0.080717
 H        -0.194064         1.105824        -0.395845
 H         0.281167        -0.283615        -1.097974
 H         1.106838        -2.148048         2.011221
 H         2.165328        -1.872689         0.481020
 H         4.106380        -1.038161         3.412668
