19
Iteration:  4857charge 0 multiplicity 1
 C         3.021702         1.811344         0.217287
 C         2.286777         0.773783         1.004320
 C         1.921123         0.818283         2.481180
 O         0.511924         0.399522         2.147464
 C         1.086469        -0.181509         0.797538
 C         0.102393        -0.215655        -0.256427
 C         1.755507        -1.357945         1.456360
 C         2.800026        -0.318363         2.171793
 O         4.072471        -0.569844         2.649761
 H         4.060031         1.463831        -0.124444
 H         2.299109         1.892015        -0.689295
 H         3.035972         2.810065         0.604764
 H         2.268817         1.655720         3.103176
 H        -0.608644        -1.163421        -0.193686
 H        -0.498384         0.747286        -0.345550
 H         0.559214        -0.271520        -1.335301
 H         1.082438        -1.962881         2.077883
 H         2.252006        -2.021153         0.785975
 H         3.885433        -0.456661         3.607829
