19
Iteration:  4264
 C         3.091640         1.759296         0.256793
 C         2.389393         0.740067         1.049535
 C         1.867857         0.767776         2.504662
 O         0.523936         0.561891         2.185481
 C         0.979620        -0.084138         1.005040
 C         0.051011        -0.020964        -0.112153
 C         1.808283        -1.417523         1.485784
 C         2.789396        -0.340974         1.936787
 O         4.051446        -0.758436         2.396651
 H         3.882933         2.320301         0.840676
 H         3.519301         1.222339        -0.642937
 H         2.391960         2.543504        -0.260282
 H         2.121052         1.303216         3.411607
 H        -0.819306        -0.855147        -0.015071
 H        -0.595419         0.943825        -0.335206
 H         0.442049        -0.340944        -1.097625
 H         1.296800        -2.104696         2.113545
 H         2.194964        -1.784071         0.524277
 H         4.006554        -1.015847         3.335180
