19
Iteration:  1387
 C         2.978169         1.879229         0.393841
 C         2.359584         0.716470         1.164875
 C         1.817435         0.696233         2.522670
 O         0.455051         0.318990         2.200810
 C         1.083105        -0.038425         0.925599
 C         0.161017        -0.126202        -0.332273
 C         1.861996        -1.399248         1.278400
 C         2.766890        -0.375183         2.012686
 O         4.054843        -0.571508         2.540911
 H         3.823188         2.268110         0.888090
 H         3.146093         1.553033        -0.622097
 H         2.295077         2.762532         0.223136
 H         1.989279         1.324382         3.429369
 H        -0.561759        -0.873570        -0.132824
 H        -0.421865         0.757420        -0.652333
 H         0.788600        -0.423192        -1.198145
 H         1.444597        -2.119199         2.035625
 H         2.251312        -1.886469         0.425821
 H         4.118208         0.361665         2.858617
