19
Iteration:  2596charge 0 multiplicity 1
 C         2.959589         1.738268         0.199415
 C         2.353348         0.765778         1.103744
 C         1.862668         0.711926         2.538219
 O         0.434949         0.385777         2.196843
 C         1.043528        -0.117805         0.939204
 C         0.174712         0.001254        -0.276352
 C         1.846572        -1.352564         1.287900
 C         2.805713        -0.413167         2.097128
 O         4.069482        -0.603616         2.616649
 H         3.773012         2.405032         0.480521
 H         3.262295         1.304321        -0.847538
 H         2.048499         2.361305        -0.193016
 H         2.031646         1.269169         3.522866
 H        -0.811844        -0.517087         0.016285
 H         0.012099         1.082440        -0.503241
 H         0.569246        -0.497889        -1.195530
 H         1.391387        -2.088963         1.901134
 H         2.264755        -1.684389         0.355890
 H         4.204660        -0.231091         3.490707
