19
Iteration:  2174
 C         2.875184         1.799968         0.239315
 C         2.438775         0.713552         1.151510
 C         1.765461         0.902652         2.526057
 O         0.459784         0.402238         2.125937
 C         1.102351        -0.103042         0.945474
 C         0.213723        -0.115726        -0.341253
 C         1.791416        -1.412247         1.432713
 C         2.765953        -0.368819         2.078860
 O         4.139871        -0.586451         2.542236
 H         3.727056         2.388835         0.575876
 H         2.980627         1.423384        -0.832509
 H         2.147556         2.502769         0.168215
 H         1.650716         1.112455         3.623210
 H        -0.434574        -1.071165        -0.389153
 H        -0.454235         0.778209        -0.374096
 H         0.785940        -0.123058        -1.306708
 H         1.302596        -2.242636         1.983455
 H         2.543921        -1.899795         0.743083
 H         4.096023        -0.984755         3.434434
