19
Iteration:  4609charge 0 multiplicity 1
 C         2.935141         1.810511         0.202126
 C         2.387624         0.759851         1.059629
 C         1.897107         0.825626         2.447914
 O         0.565493         0.478329         2.207533
 C         1.036482        -0.115565         0.935222
 C         0.079091        -0.159282        -0.288802
 C         1.859222        -1.324551         1.454671
 C         2.816511        -0.328648         2.081162
 O         4.028761        -0.755610         2.591370
 H         2.256538         1.947256        -0.625887
 H         2.925358         2.735757         0.797826
 H         3.957376         1.702755        -0.227663
 H         1.993339         1.723102         3.056811
 H        -0.796570        -0.791710        -0.166790
 H        -0.514919         0.864209        -0.496683
 H         0.589800        -0.544599        -1.206105
 H         1.111752        -1.903842         1.966307
 H         2.208353        -1.875666         0.623109
 H         4.005441        -1.110622         3.507000
