19
Iteration:  1690charge 0 multiplicity 1
 C         3.003017         1.779075         0.310879
 C         2.374298         0.693870         1.133447
 C         1.772189         0.811123         2.518920
 O         0.440692         0.405804         2.210443
 C         1.047326        -0.171785         0.891309
 C         0.172180        -0.153410        -0.287756
 C         1.857892        -1.343202         1.357906
 C         2.725773        -0.361961         2.058477
 O         4.113512        -0.451120         2.506566
 H         3.737134         2.275642         0.922002
 H         3.539767         1.464273        -0.674308
 H         2.247067         2.485494         0.003951
 H         2.155136         1.198855         3.512421
 H        -0.638250        -0.788673        -0.011584
 H        -0.104887         0.897692        -0.565470
 H         0.613582        -0.746533        -1.094710
 H         1.097408        -2.009213         1.812767
 H         2.295814        -1.870610         0.488462
 H         4.126549        -1.289574         3.046870
