19
Iteration:   555charge 0 multiplicity 1
 C         2.917379         1.913694         0.316112
 C         2.277465         0.776610         1.235036
 C         1.772408         0.609224         2.599626
 O         0.453833         0.257067         2.188975
 C         1.085163        -0.098305         0.876298
 C         0.199574         0.073431        -0.261967
 C         2.001378        -1.371382         1.102481
 C         2.793100        -0.397270         1.962381
 O         4.017870        -0.563293         2.692920
 H         3.753570         2.471499         0.780215
 H         3.158677         1.610093        -0.667149
 H         2.036515         2.682763         0.192551
 H         2.015947         0.968531         3.539898
 H        -0.730517        -0.554247        -0.068963
 H        -0.313879         1.027828        -0.262098
 H         0.667058        -0.094130        -1.219405
 H         1.411601        -2.144794         1.577495
 H         2.742151        -1.831359         0.369357
 H         4.520111        -1.383642         2.406914
