19
Iteration:  4414
 C         2.873661         1.798122         0.096303
 C         2.398943         0.691959         1.090533
 C         1.942213         0.804582         2.481186
 O         0.555006         0.480070         2.199424
 C         1.057276        -0.101526         0.864359
 C         0.109965         0.028037        -0.232482
 C         1.742286        -1.432317         1.487450
 C         2.756902        -0.440850         2.104347
 O         4.126325        -0.670914         2.587251
 H         3.752445         1.539537        -0.439583
 H         2.145405         2.074616        -0.605647
 H         3.045130         2.738700         0.797134
 H         2.371535         1.531811         3.187786
 H        -0.819095        -0.266368         0.128800
 H        -0.002374         1.115385        -0.392969
 H         0.355745        -0.449079        -1.147084
 H         0.919611        -2.049253         2.033207
 H         2.104137        -2.046538         0.613768
 H         4.029988        -1.385070         3.249307
