19
Iteration:  2138
 C         2.879710         1.900806         0.262170
 C         2.302230         0.766786         1.042591
 C         1.898448         0.820171         2.466408
 O         0.493123         0.384589         2.206725
 C         0.984050        -0.032239         0.943089
 C         0.228980        -0.203974        -0.325311
 C         1.898515        -1.358928         1.430857
 C         2.870212        -0.317921         1.944468
 O         3.970431        -0.732048         2.643484
 H         3.740482         2.116558         0.821908
 H         3.282429         1.641250        -0.715222
 H         2.117962         2.714690         0.103654
 H         2.094678         1.339656         3.503076
 H        -0.329188        -1.128370        -0.177007
 H        -0.381084         0.622602        -0.626002
 H         0.973356        -0.488110        -1.096268
 H         1.407242        -2.094975         2.043842
 H         2.323677        -1.868883         0.593117
 H         3.974253        -0.265999         3.483490
