19
Iteration:  3811
 C         2.927767         1.776314         0.100738
 C         2.309844         0.670653         1.052163
 C         1.864785         0.876966         2.474435
 O         0.459715         0.481274         2.175886
 C         1.058934        -0.120213         0.897732
 C         0.080196        -0.005244        -0.282214
 C         1.882696        -1.393789         1.560515
 C         2.841359        -0.415112         2.096111
 O         4.130692        -0.716683         2.601531
 H         2.126742         2.406530        -0.351768
 H         3.400069         2.512211         0.781383
 H         3.705147         1.521422        -0.607592
 H         2.167006         1.760028         3.119730
 H        -0.811455        -0.495280        -0.151485
 H        -0.115037         0.995824        -0.313474
 H         0.605408        -0.354389        -1.178446
 H         1.173124        -2.057540         2.089647
 H         2.208521        -1.994577         0.742765
 H         3.881330        -1.278421         3.348152
