19
Iteration:  3651charge 0 multiplicity 1
 C         3.057505         1.685365         0.123664
 C         2.353315         0.864739         1.150142
 C         1.820876         0.807716         2.537349
 O         0.438142         0.399987         2.225769
 C         1.075526        -0.077198         0.913901
 C         0.160925        -0.139293        -0.240350
 C         1.817989        -1.367719         1.388638
 C         2.765080        -0.359582         2.102746
 O         4.036965        -0.561015         2.517106
 H         3.584698         2.441784         0.587170
 H         3.839473         1.056005        -0.303904
 H         2.395984         1.874631        -0.752005
 H         2.029669         1.533206         3.393918
 H        -0.883795        -0.653126        -0.145373
 H        -0.062706         0.901519        -0.690111
 H         0.646766        -0.832248        -0.905609
 H         1.318091        -2.136983         1.963803
 H         2.255794        -1.881607         0.507365
 H         4.026670        -0.759426         3.459071
