19
Iteration:  1185charge 0 multiplicity 1
 C         2.929219         1.985126         0.467573
 C         2.273502         0.864915         1.144125
 C         1.775826         0.754880         2.549511
 O         0.512483         0.217512         2.182884
 C         1.120740        -0.153632         0.865062
 C         0.112582        -0.098007        -0.375852
 C         1.926110        -1.388828         1.280501
 C         2.800910        -0.337994         2.003974
 O         4.032225        -0.601839         2.616710
 H         3.781986         2.304589         1.117476
 H         3.401107         1.841993        -0.535567
 H         2.337695         2.811238         0.429483
 H         1.818807         1.308004         3.502985
 H        -0.715134        -0.813811        -0.312706
 H        -0.316696         0.880082        -0.591423
 H         0.737881        -0.354817        -1.200131
 H         1.553108        -2.187368         1.863803
 H         2.433206        -1.871465         0.414689
 H         4.352388        -1.361550         2.016270
