19
Iteration:  3944
 C         3.181518         1.672015         0.291410
 C         2.391215         0.736920         1.128919
 C         1.935393         0.731420         2.427618
 O         0.463850         0.536839         2.217534
 C         0.893817        -0.039116         0.962493
 C        -0.035402        -0.207657        -0.252472
 C         1.749733        -1.349094         1.432403
 C         2.743611        -0.377724         1.977676
 O         4.149000        -0.513572         2.458067
 H         3.059289         1.742604        -0.757856
 H         3.118399         2.668501         0.717594
 H         4.293952         1.296754         0.470716
 H         2.212076         1.372228         3.244839
 H        -0.825013        -1.014935        -0.121649
 H        -0.453398         0.770664        -0.196415
 H         0.457133        -0.145801        -1.302827
 H         1.164913        -2.061275         2.221114
 H         2.018220        -2.107704         0.682904
 H         4.198524        -0.956258         3.319607
