19
Iteration:   450
 C         2.967208         1.963829         0.690762
 C         2.328817         0.732496         1.162392
 C         1.759019         0.651975         2.556677
 O         0.452469         0.358202         2.039624
 C         1.090107        -0.121856         0.829125
 C         0.126296        -0.101400        -0.262247
 C         1.856803        -1.378306         1.246466
 C         2.775112        -0.363084         2.102622
 O         4.118085        -0.554662         2.419031
 H         3.668810         2.303794         1.417554
 H         3.562748         1.698457        -0.237998
 H         2.178949         2.586289         0.539226
 H         2.096385         1.328101         3.341381
 H        -0.470500        -1.025447        -0.128848
 H        -0.414691         0.841419        -0.156140
 H         0.521865        -0.231960        -1.241636
 H         1.250546        -2.178178         1.791765
 H         2.434963        -1.740419         0.374545
 H         4.568330        -1.113946         1.758846
