19
Iteration:   592charge 0 multiplicity 1
 C         2.959287         2.077330         0.515585
 C         2.268028         0.853366         1.067481
 C         1.842633         0.712640         2.522066
 O         0.436363         0.237730         2.241589
 C         0.981771        -0.145354         0.894494
 C         0.205311        -0.077312        -0.379600
 C         1.846516        -1.414561         1.286056
 C         2.792743        -0.417117         2.010445
 O         4.091529        -0.661785         2.558658
 H         3.710838         2.379430         1.259674
 H         3.624338         1.927747        -0.469646
 H         2.278192         2.854364         0.367230
 H         1.986978         1.370539         3.486140
 H        -0.532254        -0.865685        -0.565644
 H        -0.161161         0.966496        -0.422461
 H         0.985118        -0.272540        -1.138139
 H         1.140614        -1.953712         1.944087
 H         2.350536        -2.091270         0.596197
 H         4.775673        -0.681386         1.855968
