19
Iteration:  1791charge 0 multiplicity 1
 C         3.005771         1.835684         0.246651
 C         2.347921         0.822797         1.120237
 C         1.878547         0.753194         2.530406
 O         0.456474         0.286793         2.170430
 C         1.025263        -0.134911         0.905519
 C         0.076673        -0.127947        -0.257926
 C         1.952079        -1.359046         1.332338
 C         2.783911        -0.313222         2.009738
 O         3.957659        -0.534997         2.668593
 H         3.927020         2.101399         0.749893
 H         3.340460         1.314835        -0.764276
 H         2.457498         2.708667         0.020924
 H         2.057105         1.461084         3.342310
 H        -0.571889        -1.035698        -0.304977
 H        -0.567677         0.727841        -0.261745
 H         0.769135        -0.099311        -1.101059
 H         1.456087        -2.030386         2.042127
 H         2.480298        -1.719205         0.504843
 H         4.544660        -1.246710         2.422113
