19
Iteration:   948
 C         2.915641         1.990418         0.466709
 C         2.227231         0.922223         1.185805
 C         1.799131         0.578874         2.537962
 O         0.469735         0.081236         2.275706
 C         1.092852        -0.124609         0.842236
 C         0.239009         0.038923        -0.329349
 C         1.915418        -1.320385         1.138669
 C         2.821058        -0.341183         1.952123
 O         4.054224        -0.627698         2.562498
 H         3.676775         2.418143         1.143393
 H         3.448110         1.620411        -0.363440
 H         2.219716         2.861168         0.159628
 H         1.857578         1.213055         3.312393
 H        -0.401535        -0.949504        -0.558064
 H        -0.567928         0.805596        -0.271921
 H         0.823707         0.066947        -1.242597
 H         1.415363        -2.067115         1.813340
 H         2.385908        -2.039204         0.357217
 H         4.004560        -0.202717         3.419116
