19
Iteration:  1480charge 0 multiplicity 1
 C         2.999543         1.830132         0.330494
 C         2.439505         0.738846         1.204131
 C         1.798022         0.684109         2.560335
 O         0.435286         0.402059         2.148045
 C         0.960189        -0.129026         0.857325
 C         0.079550        -0.158861        -0.222475
 C         1.938788        -1.383005         1.183639
 C         2.816267        -0.359343         2.024720
 O         4.058929        -0.555581         2.638654
 H         3.795993         2.474023         0.822590
 H         3.445991         1.419074        -0.531851
 H         2.243721         2.475980        -0.066516
 H         2.002410         1.404756         3.260609
 H        -0.923149        -0.539091         0.152698
 H         0.014528         0.895143        -0.500197
 H         0.494777        -0.808222        -1.015757
 H         1.353753        -2.161557         1.661114
 H         2.214077        -1.701874         0.100933
 H         4.435818         0.244468         2.986914
