19
Iteration:   875
 C         2.986563         2.032507         0.498989
 C         2.281531         0.890227         1.217252
 C         1.747482         0.487894         2.645238
 O         0.462445         0.117055         2.251277
 C         1.067192        -0.139537         0.818266
 C         0.127654        -0.008168        -0.358429
 C         2.015958        -1.302300         1.135178
 C         2.774922        -0.376794         1.979568
 O         4.008568        -0.491211         2.590594
 H         3.902228         2.380586         0.957670
 H         3.369104         1.598206        -0.457823
 H         2.278953         2.828635         0.114682
 H         2.013683         1.107314         3.482405
 H        -0.737703        -0.612006        -0.413299
 H        -0.177794         1.044856        -0.479847
 H         0.691600        -0.287702        -1.266725
 H         1.530511        -2.178617         1.591149
 H         2.563647        -1.666008         0.305839
 H         4.376157        -1.311824         2.185857
