19
Iteration:  2709charge 0 multiplicity 1
 C         3.209077         1.803817         0.328560
 C         2.333283         0.808684         1.082996
 C         1.780472         0.846058         2.487938
 O         0.427571         0.343381         2.199943
 C         1.076705        -0.142586         0.894718
 C         0.056090        -0.155506        -0.168482
 C         1.818261        -1.365470         1.373085
 C         2.795679        -0.323921         2.058955
 O         4.014177        -0.593430         2.434776
 H         4.207558         1.944113         0.876472
 H         3.426379         1.267313        -0.625222
 H         2.642900         2.878365         0.258599
 H         1.979447         1.473218         3.299684
 H        -0.651476        -1.071067         0.004524
 H        -0.395262         0.859968        -0.365443
 H         0.510427        -0.365692        -1.201687
 H         1.283058        -2.237108         1.694667
 H         2.386447        -1.761044         0.502725
 H         4.071997        -0.711038         3.413498
