19
Iteration:   314
 C         2.883042         1.884397         0.393508
 C         2.285781         0.822335         1.155616
 C         1.804416         0.518648         2.610629
 O         0.447624         0.073618         2.247362
 C         1.020928        -0.134185         0.970417
 C         0.251958         0.205863        -0.292309
 C         1.937101        -1.402327         1.095772
 C         2.813496        -0.350984         2.015722
 O         3.987483        -0.486751         2.592917
 H         3.802284         2.340064         0.846919
 H         3.280340         1.548572        -0.588032
 H         2.239916         2.744254         0.144262
 H         1.959770         0.902401         3.641660
 H        -0.629757        -0.412964        -0.514376
 H        -0.100932         1.269145        -0.332404
 H         0.911867         0.008613        -1.219741
 H         1.589058        -2.259575         1.690374
 H         2.564635        -1.632527         0.179923
 H         4.817735        -0.508247         2.038187
