19
Iteration:  2299
 C         3.094557         1.905160         0.323092
 C         2.257979         0.854584         1.013113
 C         1.838003         0.789368         2.442164
 O         0.510659         0.330084         2.155137
 C         0.990817        -0.052994         0.885727
 C         0.078247        -0.238986        -0.229266
 C         1.896193        -1.406910         1.364884
 C         2.767558        -0.378871         2.092594
 O         4.011557        -0.638532         2.588411
 H         3.986844         1.980243         0.981180
 H         3.640931         1.503083        -0.520251
 H         2.755324         2.999970         0.075404
 H         2.077886         1.445883         3.323708
 H        -0.730869        -0.965690         0.041561
 H        -0.332628         0.783726        -0.534307
 H         0.632459        -0.650491        -1.132729
 H         1.260941        -2.037154         2.121503
 H         2.469403        -1.974955         0.529660
 H         4.166169         0.116126         3.216266
