19
Iteration:  3636
 C         2.995984         1.705507         0.138887
 C         2.303345         0.812862         1.115385
 C         1.785791         0.864550         2.546627
 O         0.473890         0.444855         2.183228
 C         1.021459        -0.095950         0.910973
 C         0.143320        -0.165216        -0.338524
 C         1.868939        -1.335541         1.453680
 C         2.813015        -0.317403         2.076650
 O         4.125866        -0.700012         2.579319
 H         3.583628         2.587526         0.557292
 H         3.635632         1.138833        -0.558875
 H         2.221335         2.292099        -0.375681
 H         1.937152         1.516710         3.394868
 H        -0.728496        -0.752149         0.179448
 H        -0.209932         0.791668        -0.609739
 H         0.590898        -0.572811        -1.343556
 H         1.157697        -1.793751         2.192485
 H         2.372793        -1.906883         0.693308
 H         4.033665        -0.916133         3.535364
