19
Iteration:  1958charge 0 multiplicity 1
 C         2.968231         1.911248         0.206807
 C         2.334101         0.792022         1.059420
 C         1.859095         0.641908         2.530753
 O         0.460968         0.356672         2.225722
 C         0.998130        -0.074573         0.928509
 C         0.210311        -0.186885        -0.321579
 C         1.828408        -1.355516         1.365583
 C         2.843096        -0.444258         2.019207
 O         4.049959        -0.546052         2.643170
 H         3.924502         2.385970         0.627662
 H         3.337428         1.430853        -0.751298
 H         2.249761         2.780147         0.026380
 H         2.097166         1.340431         3.381389
 H        -0.478348        -1.041693        -0.318839
 H        -0.456495         0.662340        -0.248230
 H         0.813730         0.043353        -1.214311
 H         1.176261        -2.006068         1.896764
 H         2.213437        -1.623222         0.369777
 H         3.821904        -0.428237         3.577671
