19
Iteration:   290
 C         2.874000         1.876439         0.572056
 C         2.311818         0.836161         1.321496
 C         1.779241         0.559041         2.688545
 O         0.374630         0.319464         2.222897
 C         1.082573        -0.055210         0.842571
 C         0.177809        -0.031501        -0.376913
 C         1.910377        -1.412991         0.994547
 C         2.854937        -0.414771         2.009380
 O         4.134018        -0.537737         2.538449
 H         3.740250         2.435359         0.996898
 H         3.233747         1.470780        -0.342717
 H         2.049489         2.649973         0.258669
 H         1.955073         0.897559         3.649936
 H        -0.449960        -0.900110        -0.465739
 H        -0.504808         0.877809        -0.355017
 H         0.797691         0.003418        -1.333740
 H         1.434441        -2.169218         1.619338
 H         2.296875        -1.768259         0.051394
 H         4.785869        -0.367350         1.841331
