19
Iteration:  1150charge 0 multiplicity 1
 C         2.887593         1.910479         0.408979
 C         2.365962         0.831687         1.242553
 C         1.779089         0.662578         2.610721
 O         0.510526         0.278950         2.072005
 C         1.078298        -0.078044         0.812311
 C         0.087569        -0.051411        -0.250962
 C         1.969778        -1.396361         1.146318
 C         2.838594        -0.381136         2.020743
 O         4.047056        -0.624812         2.602116
 H         3.659798         2.475278         0.938482
 H         3.166636         1.631194        -0.588936
 H         2.065815         2.575534         0.258535
 H         1.843513         1.046313         3.560014
 H        -0.447783        -0.996804        -0.356625
 H        -0.588405         0.822535        -0.080949
 H         0.609835         0.125313        -1.245502
 H         1.560919        -2.266478         1.733555
 H         2.470712        -1.623387         0.239476
 H         4.028695        -0.309953         3.573978
