19
Iteration:   204
 C         2.961770         2.047331         0.643921
 C         2.353800         0.805757         1.214507
 C         1.767222         0.530502         2.569962
 O         0.523569         0.243575         2.162747
 C         1.239819        -0.055911         0.736902
 C        -0.009890        -0.113554        -0.188964
 C         1.955308        -1.347996         0.997024
 C         2.744009        -0.440576         1.948824
 O         3.993374        -0.501723         2.609830
 H         3.753315         2.359064         1.374960
 H         3.340414         1.949964        -0.363567
 H         2.161917         2.763811         0.623190
 H         1.835390         0.872211         3.525766
 H        -0.815725        -0.680923         0.249702
 H        -0.479454         0.932997        -0.240783
 H         0.332723        -0.437581        -1.256229
 H         1.556584        -2.399009         1.221779
 H         2.574078        -1.463849        -0.003044
 H         4.694159        -0.948657         2.153509
