19
Iteration:  1133
 C         2.908357         1.939026         0.375515
 C         2.289541         0.841210         1.153657
 C         1.819787         0.611326         2.574803
 O         0.465775         0.222811         2.301221
 C         1.119881        -0.113451         0.872535
 C         0.103670         0.001111        -0.372501
 C         2.011173        -1.341760         1.100521
 C         2.785174        -0.398038         1.991667
 O         4.004166        -0.652246         2.693266
 H         3.761969         2.423147         0.917169
 H         3.355916         1.470249        -0.573809
 H         2.246483         2.798955         0.002199
 H         2.036877         1.327090         3.460570
 H        -0.434569        -0.963830        -0.448149
 H        -0.667905         0.736525        -0.237714
 H         0.612929         0.157956        -1.285976
 H         1.400287        -2.139061         1.479696
 H         2.711809        -1.781619         0.294902
 H         4.371287         0.280646         2.846707
