19
Iteration:  1739charge 0 multiplicity 1
 C         3.003786         1.759300         0.212609
 C         2.388058         0.811782         1.116663
 C         1.760465         0.740728         2.527846
 O         0.495446         0.330499         2.178994
 C         1.049140        -0.044435         0.867781
 C         0.096178        -0.117640        -0.260881
 C         1.929917        -1.391695         1.370069
 C         2.729707        -0.334674         2.018532
 O         4.036950        -0.609029         2.641741
 H         3.945816         2.149876         0.688457
 H         3.254869         1.378553        -0.725434
 H         2.272463         2.597007         0.006711
 H         1.930732         1.307639         3.475387
 H        -0.462471        -1.115790        -0.333322
 H        -0.567478         0.707690        -0.028967
 H         0.630042        -0.002783        -1.223616
 H         1.369314        -2.123383         2.006175
 H         2.472378        -1.724380         0.438424
 H         4.515297         0.123215         3.045903
