19
Iteration:  3489charge 0 multiplicity 1
 C         3.219121         1.555896         0.242105
 C         2.333476         0.781559         1.143992
 C         1.779285         0.672636         2.574184
 O         0.476856         0.347140         2.173757
 C         1.031374        -0.093237         0.968362
 C         0.109162        -0.086153        -0.255462
 C         1.776248        -1.436541         1.335060
 C         2.725470        -0.355331         2.024169
 O         4.029843        -0.219895         2.495177
 H         4.197271         1.721191         0.811913
 H         3.537641         1.064460        -0.678599
 H         2.800828         2.484763        -0.079437
 H         2.088175         1.243285         3.450627
 H        -0.798238        -0.425095         0.146957
 H        -0.166160         0.854543        -0.799310
 H         0.348026        -0.867420        -0.905857
 H         1.200191        -2.119585         1.946475
 H         2.376353        -1.751767         0.418178
 H         3.983551        -0.765609         3.305941
