19
Iteration:    62
 C         3.039411         2.330996         0.623120
 C         2.226262         1.010153         1.127444
 C         1.794410         0.650042         2.478007
 O         0.539754         0.118032         2.216094
 C         1.071235        -0.093164         0.854943
 C        -0.006081        -0.197779        -0.303960
 C         2.057354        -1.347653         1.131278
 C         2.826763        -0.390164         1.935391
 O         3.938255        -0.866876         2.565755
 H         3.834889         2.530259         1.408384
 H         3.675875         2.038522        -0.314046
 H         2.517945         3.269725         0.404463
 H         1.859845         1.219944         3.482196
 H        -0.330504        -1.242199        -0.513384
 H        -1.012835         0.217455         0.038016
 H         0.394888         0.430628        -1.160848
 H         1.480345        -2.180992         1.701490
 H         2.636950        -1.763629         0.222645
 H         4.545999        -0.180176         2.774262
