19
Iteration:  4708charge 0 multiplicity 1
 C         3.257147         1.544968         0.171813
 C         2.251611         0.827166         1.126984
 C         1.714906         0.736262         2.597765
 O         0.412277         0.306837         2.246690
 C         1.021972        -0.078927         0.891482
 C         0.150076        -0.074400        -0.207999
 C         1.908270        -1.314174         1.411240
 C         2.715531        -0.316552         2.027747
 O         4.049771        -0.447128         2.423206
 H         3.121521         2.598737         0.127867
 H         4.277349         1.340158         0.334701
 H         2.944828         1.220988        -0.845565
 H         1.864914         1.478013         3.398345
 H        -0.715797        -0.596547         0.083091
 H        -0.239748         1.003224        -0.389578
 H         0.535479        -0.540972        -1.063364
 H         1.509158        -1.956497         2.210876
 H         2.278754        -1.786744         0.513546
 H         4.159233        -0.477089         3.391137
