19
Iteration:  2971charge 0 multiplicity 1
 C         2.907068         1.792092         0.127265
 C         2.335532         0.798312         1.086792
 C         1.851010         0.747098         2.480826
 O         0.496988         0.346987         2.200473
 C         1.046058        -0.132273         0.906286
 C         0.194661         0.075406        -0.316789
 C         1.794235        -1.420301         1.444275
 C         2.828036        -0.391136         2.057663
 O         4.126698        -0.638804         2.691009
 H         3.722751         2.440306         0.338759
 H         3.048544         1.299420        -0.970212
 H         1.952548         2.440314        -0.135755
 H         1.773192         1.564532         3.200980
 H        -0.763185        -0.435378        -0.169143
 H         0.033463         1.115651        -0.540420
 H         0.756216        -0.450291        -1.148818
 H         1.190808        -2.190098         2.167915
 H         2.379761        -2.006060         0.678862
 H         3.825524        -0.816006         3.594593
