19
Iteration:  3938charge 0 multiplicity 1
 C         3.248139         1.638860         0.325088
 C         2.386100         0.786284         1.044458
 C         1.891826         0.711182         2.450083
 O         0.456849         0.524561         2.210351
 C         0.922388        -0.018222         0.905217
 C        -0.088936        -0.202177        -0.241399
 C         1.710457        -1.394090         1.476084
 C         2.821992        -0.410017         2.048921
 O         4.135687        -0.470422         2.424407
 H         3.030727         1.732071        -0.783496
 H         3.164144         2.627684         0.831583
 H         4.296285         1.354151         0.354253
 H         2.063420         1.269146         3.384612
 H        -0.756036        -1.017390        -0.049028
 H        -0.612806         0.815849        -0.226466
 H         0.447745        -0.123132        -1.155238
 H         1.193276        -1.931838         2.228392
 H         2.241439        -1.949294         0.634609
 H         4.116074        -1.047782         3.225633
