19
Iteration:   184
 C         2.925523         1.992993         0.543125
 C         2.318026         0.863120         1.301352
 C         1.810924         0.528462         2.606010
 O         0.369878         0.119340         2.102345
 C         1.053933        -0.074110         0.863941
 C         0.047207         0.062422        -0.247768
 C         2.060976        -1.326233         1.036748
 C         2.847540        -0.380527         1.988967
 O         4.060549        -0.600614         2.602019
 H         3.857568         2.436994         1.004407
 H         3.187043         1.586935        -0.509745
 H         2.282659         2.797346         0.402442
 H         1.740438         1.037563         3.510498
 H        -0.853249        -0.413641         0.148938
 H        -0.194799         1.127237        -0.518984
 H         0.453552        -0.541351        -1.137600
 H         1.734034        -2.349861         1.344199
 H         2.681905        -1.552453         0.073798
 H         4.816809        -0.505672         2.021991
