19
Iteration:  3526charge 0 multiplicity 1
 C         3.202328         1.568677         0.222684
 C         2.255657         0.784308         1.145944
 C         1.730131         0.864694         2.525984
 O         0.436431         0.304736         2.163109
 C         1.006891        -0.143014         0.909806
 C         0.043358        -0.082777        -0.245235
 C         1.947479        -1.320492         1.423198
 C         2.753068        -0.240460         2.088026
 O         4.051836        -0.496118         2.479122
 H         4.218553         1.360896         0.594077
 H         3.097831         1.271536        -0.810347
 H         3.083333         2.623976         0.350983
 H         1.762412         1.588839         3.337265
 H        -0.832697        -0.735060         0.150484
 H        -0.268209         0.884681        -0.726133
 H         0.600043        -0.752680        -1.024858
 H         1.744238        -2.328122         1.680966
 H         2.626994        -1.569687         0.616166
 H         4.247456        -0.520310         3.419381
