19
Iteration:  3875charge 0 multiplicity 1
 C         3.230457         1.560777         0.180251
 C         2.320619         0.847826         1.142642
 C         1.891308         0.796371         2.558917
 O         0.445878         0.398380         2.233614
 C         1.008508        -0.056325         0.953266
 C        -0.083923        -0.110315        -0.198785
 C         1.847599        -1.308911         1.317323
 C         2.804432        -0.384983         1.992467
 O         4.069722        -0.556523         2.545795
 H         2.589288         1.625889        -0.747041
 H         3.440874         2.589460         0.474567
 H         4.098321         1.056881        -0.072026
 H         1.888164         1.538250         3.414366
 H        -1.066271        -0.571957        -0.074381
 H        -0.199512         0.971435        -0.586245
 H         0.383415        -0.589662        -1.181697
 H         1.338432        -2.116088         1.772873
 H         2.297767        -1.601493         0.369170
 H         4.121295        -0.575549         3.522416
