19
Iteration:  4824charge 0 multiplicity 1
 C         3.012331         1.886138         0.226712
 C         2.397819         0.795503         1.090341
 C         1.888865         0.838342         2.469728
 O         0.438087         0.619996         2.111171
 C         1.064388        -0.203156         1.002806
 C         0.125555        -0.327900        -0.188966
 C         1.882503        -1.413543         1.382953
 C         2.791407        -0.365401         1.940012
 O         3.972293        -0.690925         2.654111
 H         4.126728         2.075108        -0.048744
 H         2.610219         1.575333        -0.857928
 H         2.606714         2.871099         0.331988
 H         2.220011         1.525509         3.254611
 H        -0.618243        -1.266347        -0.080451
 H        -0.505882         0.562610        -0.372316
 H         0.922210        -0.610425        -1.021643
 H         1.462722        -2.049826         2.175866
 H         2.254009        -1.785655         0.461562
 H         3.769118        -0.352404         3.541316
