19
Iteration:  4397charge 0 multiplicity 1
 C         2.955709         1.745562         0.127252
 C         2.425050         0.703535         1.016105
 C         1.943441         0.744939         2.476374
 O         0.552383         0.470718         2.240318
 C         1.068498        -0.149491         1.020120
 C         0.163201         0.082114        -0.147373
 C         1.755719        -1.411237         1.377465
 C         2.710222        -0.446503         1.997327
 O         3.975225        -0.577923         2.547007
 H         3.883533         1.309978        -0.356144
 H         2.160398         1.821148        -0.715453
 H         3.015443         2.691365         0.581284
 H         2.074621         1.414408         3.315133
 H        -0.924020        -0.168992         0.237022
 H         0.168169         1.133870        -0.470624
 H         0.569579        -0.679377        -0.915626
 H         1.361004        -2.063077         2.110568
 H         2.297628        -1.904444         0.576211
 H         4.060959        -1.136336         3.343063
