19
Iteration:   132charge 0 multiplicity 1
 C         2.769298         1.919161         0.450571
 C         2.297195         0.788043         1.311289
 C         1.711527         0.520755         2.664749
 O         0.428984         0.142913         2.231615
 C         1.063625        -0.072463         0.920082
 C         0.365258         0.189520        -0.340576
 C         1.987763        -1.362548         1.131798
 C         2.782848        -0.439212         1.985770
 O         4.081883        -0.600975         2.427088
 H         3.636498         2.423832         0.901359
 H         3.097401         1.606296        -0.581755
 H         1.976692         2.674456         0.351081
 H         1.823729         0.924428         3.661508
 H        -0.534217        -0.410451        -0.283944
 H         0.036661         1.194068        -0.463617
 H         1.053096        -0.106439        -1.102431
 H         1.582296        -2.210434         1.612536
 H         2.357330        -1.655447         0.188840
 H         4.431739         0.278478         2.408104
