19
Iteration:  3545
 C         3.153769         1.706460         0.186404
 C         2.290450         0.828676         1.117440
 C         1.736129         0.846209         2.466065
 O         0.457746         0.381722         2.164139
 C         1.100403        -0.188244         0.956650
 C         0.104101        -0.214962        -0.199199
 C         1.938146        -1.332756         1.351840
 C         2.694267        -0.300644         2.131657
 O         4.002738        -0.555176         2.508443
 H         4.329916         1.568365         0.316444
 H         2.937604         1.453309        -0.852314
 H         3.076087         2.741503         0.384897
 H         1.991651         1.575795         3.296063
 H        -0.688315        -0.823687         0.076378
 H        -0.248745         0.875178        -0.195859
 H         0.471817        -0.344994        -1.193267
 H         1.321413        -2.034487         1.963966
 H         2.555377        -1.940911         0.547986
 H         4.040487        -0.503423         3.471518
