19
Iteration:  3781
 C         3.006315         1.811020         0.134375
 C         2.396586         0.734998         1.150944
 C         1.879605         0.868602         2.544810
 O         0.539820         0.519776         2.167339
 C         1.087380        -0.042192         0.949224
 C         0.138743        -0.236359        -0.211707
 C         1.793273        -1.372401         1.445601
 C         2.749473        -0.424832         2.002005
 O         3.996950        -0.655248         2.518911
 H         2.305762         2.623238         0.086070
 H         3.937281         2.084523         0.657835
 H         3.184115         1.464224        -1.009756
 H         2.143500         1.361651         3.471321
 H        -0.628307        -1.110158        -0.174118
 H        -0.409479         0.750843        -0.427502
 H         0.686192        -0.393963        -1.128790
 H         0.961613        -1.949141         2.055763
 H         2.109034        -1.892438         0.557571
 H         3.880233        -0.904714         3.458086
