19
Iteration:   333charge 0 multiplicity 1
 C         2.913880         1.906063         0.304368
 C         2.227887         0.863730         1.196886
 C         1.675740         0.651838         2.566401
 O         0.534428        -0.074404         2.247524
 C         1.135496        -0.184032         0.842482
 C         0.180147         0.294148        -0.237313
 C         1.992158        -1.396149         1.180796
 C         2.794422        -0.394422         1.965628
 O         4.004804        -0.542574         2.675552
 H         3.850097         2.344055         0.773459
 H         3.227304         1.601887        -0.660662
 H         2.265444         2.934458         0.162598
 H         1.839651         1.279115         3.378771
 H        -0.758131        -0.195088        -0.248051
 H         0.105275         1.402628        -0.018845
 H         0.483922         0.204741        -1.320852
 H         1.366233        -2.165853         1.658143
 H         2.579648        -1.675847         0.354066
 H         4.740121        -0.847209         2.044219
