19
Iteration:   277
 C         2.951786         2.020911         0.576406
 C         2.328536         0.798191         1.301684
 C         1.731478         0.570784         2.645329
 O         0.457072         0.274260         2.115512
 C         1.062981        -0.072741         0.890601
 C         0.153764        -0.103111        -0.333104
 C         1.883555        -1.285010         1.145846
 C         2.770269        -0.440998         2.006650
 O         4.130794        -0.626105         2.475348
 H         3.685008         2.478254         1.245887
 H         3.396342         1.756448        -0.363124
 H         2.133079         2.845571         0.388095
 H         1.855808         1.096886         3.578410
 H        -0.240873        -1.125281        -0.265205
 H        -0.678451         0.623761        -0.334645
 H         0.701653        -0.016103        -1.262329
 H         1.266136        -2.150724         1.362439
 H         2.531444        -1.519279         0.361022
 H         4.722590        -0.298637         1.750490
