19
Iteration:  3529
 C         3.208424         1.579299         0.239529
 C         2.265924         0.794563         1.112163
 C         1.749246         0.878482         2.528828
 O         0.428742         0.305042         2.158547
 C         1.017652        -0.138562         0.882088
 C         0.061197        -0.092480        -0.213305
 C         1.953550        -1.326866         1.430331
 C         2.742125        -0.246932         2.096575
 O         4.032079        -0.511776         2.478116
 H         4.172362         1.311518         0.515382
 H         3.016646         1.303007        -0.828615
 H         2.988418         2.763916         0.301815
 H         1.709348         1.575225         3.312612
 H        -0.877212        -0.759126         0.093247
 H        -0.243363         0.831955        -0.587874
 H         0.635595        -0.714566        -0.958668
 H         1.749681        -2.392524         1.724064
 H         2.601539        -1.515449         0.613881
 H         4.257110        -0.533597         3.421394
