19
Iteration:  4623
 C         2.957714         1.952459         0.179734
 C         2.425005         0.713161         0.981797
 C         1.899047         0.852958         2.423927
 O         0.452046         0.501924         2.161682
 C         1.035782        -0.142140         0.912349
 C         0.072814        -0.154610        -0.196384
 C         1.825590        -1.393623         1.509942
 C         2.808203        -0.381537         1.995439
 O         4.044728        -0.757673         2.635197
 H         2.338498         2.207333        -0.680989
 H         3.131319         2.860595         0.728096
 H         4.045653         1.771500        -0.279937
 H         2.275127         1.387606         3.309475
 H        -0.568281        -1.045547         0.025958
 H        -0.347635         0.944915        -0.206216
 H         0.647804        -0.220705        -1.103194
 H         1.521875        -2.076076         2.264797
 H         2.365386        -2.022608         0.748747
 H         3.719399        -1.148675         3.467576
