19
Iteration:  2680
 C         3.284922         1.719254         0.407079
 C         2.349576         0.793533         1.154496
 C         1.829903         0.707219         2.578068
 O         0.418852         0.495850         2.151587
 C         1.030766        -0.070370         0.846956
 C        -0.096363        -0.315664        -0.217016
 C         1.817754        -1.292106         1.312563
 C         2.786261        -0.310884         1.990130
 O         4.078692        -0.471815         2.443165
 H         4.143587         1.914240         1.111303
 H         3.670996         1.218674        -0.423253
 H         2.909209         2.638756         0.211923
 H         1.912065         1.224416         3.581498
 H        -0.622993        -1.167778         0.034542
 H        -0.738878         0.508508        -0.329506
 H         0.408825        -0.496775        -1.164761
 H         1.240177        -2.235945         1.737855
 H         2.329287        -1.722214         0.348608
 H         4.118895        -1.094515         3.211151
