19
Iteration:  2935
 C         3.037609         1.705958         0.187391
 C         2.367127         0.772225         1.166833
 C         1.804483         0.756348         2.589481
 O         0.489746         0.420510         2.202956
 C         1.026198        -0.036117         0.919905
 C         0.127979        -0.089338        -0.215923
 C         1.909022        -1.437750         1.273930
 C         2.737342        -0.394685         1.987838
 O         4.004053        -0.515909         2.593806
 H         4.156015         2.041431         0.352060
 H         3.091898         0.969308        -0.770097
 H         2.384890         2.653557         0.046349
 H         1.983762         1.440200         3.514478
 H        -0.859420        -0.534813        -0.066168
 H         0.010510         0.932849        -0.607653
 H         0.678404        -0.598348        -0.961644
 H         1.553739        -2.394571         1.689449
 H         2.414883        -1.575701         0.349149
 H         3.933246        -0.794830         3.507047
