19
Iteration:  3209charge 0 multiplicity 1
 C         2.912679         1.853081         0.231044
 C         2.375200         0.719098         1.065687
 C         1.937402         0.774509         2.466082
 O         0.535366         0.473648         2.181801
 C         1.062867        -0.024528         0.887905
 C         0.070049        -0.172571        -0.319331
 C         1.833717        -1.384622         1.407327
 C         2.814594        -0.437578         2.012480
 O         4.035511        -0.596182         2.684792
 H         3.496950         2.467731         0.911624
 H         3.696660         1.430977        -0.401877
 H         2.218420         2.437483        -0.459861
 H         2.250090         1.339088         3.309322
 H        -0.507809        -1.100562        -0.039128
 H        -0.731730         0.546516        -0.389720
 H         0.508116        -0.287209        -1.384201
 H         1.163940        -1.981766         2.139064
 H         2.411406        -2.001345         0.622815
 H         3.657151        -0.885782         3.522330
