19
Iteration:  4226charge 0 multiplicity 1
 C         2.898567         1.742362         0.051933
 C         2.376878         0.763741         1.095722
 C         1.967160         0.765225         2.553810
 O         0.616846         0.444427         2.343875
 C         1.084488        -0.027157         0.915572
 C         0.094761         0.074608        -0.209917
 C         1.715826        -1.346005         1.356573
 C         2.789526        -0.388148         2.066675
 O         3.993584        -0.809149         2.502324
 H         3.259793         2.698908         0.406494
 H         3.617915         1.246970        -0.560559
 H         2.036383         1.974916        -0.564717
 H         2.077372         1.284027         3.528546
 H        -0.736360        -0.304838         0.181822
 H         0.064459         1.007813        -0.559370
 H         0.592692        -0.567876        -0.932782
 H         1.184446        -2.311162         1.745167
 H         2.325347        -1.765452         0.534547
 H         4.058248        -0.519118         3.431513
