19
Iteration:  3467
 C         3.147763         1.663975         0.253266
 C         2.345658         0.738226         1.103877
 C         1.781308         0.773812         2.479612
 O         0.443537         0.412424         2.186252
 C         1.045010        -0.206842         0.898714
 C         0.039071        -0.072198        -0.228911
 C         1.838047        -1.420793         1.386640
 C         2.779867        -0.368642         2.044259
 O         4.046238        -0.381688         2.548033
 H         3.872560         2.294652         0.824739
 H         3.770248         1.158336        -0.482880
 H         2.571113         2.338607        -0.279778
 H         2.136375         1.348647         3.312205
 H        -0.885626        -0.513813         0.022021
 H        -0.067587         0.999132        -0.589709
 H         0.478820        -0.614050        -1.034564
 H         1.337813        -2.119725         2.033268
 H         2.514552        -1.761934         0.585082
 H         4.077178        -0.977876         3.320651
