19
Iteration:  1264
 C         3.029272         1.933517         0.396221
 C         2.285511         0.813563         1.084806
 C         1.728255         0.748030         2.522782
 O         0.458896         0.162702         2.184336
 C         1.082736        -0.127615         0.875835
 C         0.096451        -0.031691        -0.289511
 C         1.960990        -1.402529         1.246887
 C         2.733602        -0.333738         2.074232
 O         4.081972        -0.522293         2.627762
 H         3.884962         2.227360         0.978346
 H         3.529073         1.506993        -0.511364
 H         2.398814         2.699025         0.127938
 H         1.722179         1.256740         3.530188
 H        -0.754149        -0.611076         0.052657
 H        -0.147610         0.979627        -0.504915
 H         0.359351        -0.501306        -1.215568
 H         1.552947        -2.202680         1.771833
 H         2.693484        -1.632934         0.441043
 H         4.469238        -1.236700         2.117974
