19
Iteration:  3838
 C         3.005704         1.707265         0.117053
 C         2.369327         0.724674         1.097589
 C         1.881231         0.780549         2.508448
 O         0.518809         0.432693         2.181813
 C         1.044456        -0.130850         0.924041
 C         0.110924         0.014982        -0.198722
 C         1.825678        -1.402127         1.445781
 C         2.765248        -0.414229         2.040580
 O         4.042970        -0.563493         2.592428
 H         2.165445         1.879490        -0.558603
 H         3.203481         2.739226         0.429363
 H         3.917165         1.376931        -0.490025
 H         2.331657         1.440814         3.212224
 H        -0.964066        -0.286868         0.093698
 H         0.116769         1.150019        -0.418651
 H         0.535853        -0.568375        -1.011497
 H         1.172372        -2.138254         1.954760
 H         2.128695        -1.928460         0.494833
 H         3.747176        -1.006634         3.402697
