19
Iteration:  1023
 C         3.036790         2.132742         0.552311
 C         2.307207         0.851489         1.125680
 C         1.753047         0.574835         2.565020
 O         0.508762         0.138697         2.159994
 C         1.034683        -0.066585         0.849296
 C         0.055036        -0.163710        -0.294142
 C         1.976002        -1.320438         1.205394
 C         2.807252        -0.348726         1.970112
 O         3.980113        -0.656345         2.604049
 H         3.907914         2.525086         1.139958
 H         3.432311         1.882215        -0.450728
 H         2.412106         3.010200         0.557152
 H         1.939548         1.232886         3.301739
 H        -0.982757        -0.561647        -0.294017
 H        -0.058772         0.835487        -0.722908
 H         0.621642        -0.623066        -1.046545
 H         1.537840        -2.082337         1.796248
 H         2.452570        -1.882062         0.349426
 H         4.637258        -0.058591         2.176819
