19
Iteration:  4013charge 0 multiplicity 1
 C         2.908040         1.698836        -0.009075
 C         2.369535         0.726055         1.139544
 C         1.872974         0.854587         2.516986
 O         0.506180         0.463160         2.226029
 C         1.037294        -0.053327         1.002904
 C         0.057091         0.068009        -0.200673
 C         1.850922        -1.344191         1.305739
 C         2.829597        -0.441106         2.000936
 O         4.102165        -0.754484         2.661894
 H         3.612607         1.218117        -0.723874
 H         2.063646         2.190029        -0.543226
 H         3.590031         2.477960         0.469756
 H         2.195726         1.261608         3.465337
 H        -0.840802        -0.340918         0.243607
 H         0.011537         1.055770        -0.670360
 H         0.406113        -0.556179        -0.957598
 H         1.417562        -2.058277         2.144339
 H         2.235750        -1.999056         0.409094
 H         3.842116        -0.767160         3.593152
