19
Iteration:  1618
 C         3.095283         1.782260         0.271278
 C         2.259941         0.846063         1.068558
 C         1.819415         0.865448         2.452682
 O         0.551186         0.242486         2.191272
 C         1.014475        -0.097699         0.871371
 C         0.035996        -0.124312        -0.237769
 C         1.953551        -1.380912         1.364232
 C         2.788920        -0.290858         2.067712
 O         3.971909        -0.627948         2.564446
 H         3.929408         2.141885         0.896182
 H         3.466136         1.527986        -0.710153
 H         2.401340         2.673659         0.048697
 H         1.809815         1.264892         3.388829
 H        -0.919233        -0.663834         0.005622
 H        -0.047867         0.914807        -0.531016
 H         0.490686        -0.673799        -1.036040
 H         1.620843        -2.237541         2.014474
 H         2.691181        -1.843159         0.737708
 H         3.943199        -0.214567         3.502559
