19
Iteration:  2547
 C         2.830220         1.875504         0.136863
 C         2.415951         0.781184         1.056939
 C         1.798664         0.751961         2.506517
 O         0.460881         0.385070         2.197313
 C         1.076253        -0.087614         0.922292
 C         0.189183        -0.063268        -0.247637
 C         1.839648        -1.302151         1.380789
 C         2.818933        -0.393610         2.062247
 O         4.082984        -0.715898         2.665957
 H         3.891192         2.295271         0.384271
 H         3.060711         1.550822        -0.895750
 H         2.269074         2.775454        -0.002876
 H         2.046444         1.557449         3.159618
 H        -0.634323        -0.725175        -0.198144
 H        -0.110655         0.965078        -0.454440
 H         0.786659        -0.383988        -1.082406
 H         1.293365        -2.190813         1.921485
 H         2.468873        -2.110982         0.768159
 H         3.969331        -1.257385         3.487025
