19
Iteration:  3524
 C         3.195347         1.561001         0.216646
 C         2.253728         0.783575         1.160243
 C         1.715056         0.852206         2.523455
 O         0.440272         0.307490         2.169175
 C         1.003634        -0.144155         0.930306
 C         0.032983        -0.090039        -0.267633
 C         1.944349        -1.315083         1.410311
 C         2.757125        -0.240792         2.090309
 O         4.067057        -0.484604         2.477029
 H         4.272738         1.384683         0.634858
 H         3.150148         1.248280        -0.814571
 H         3.133571         2.560891         0.371290
 H         1.806962         1.606758         3.365678
 H        -0.763579        -0.663957         0.143316
 H        -0.271657         0.904942        -0.781511
 H         0.521430        -0.726912        -1.040891
 H         1.681658        -2.320670         1.725430
 H         2.668868        -1.601979         0.556963
 H         4.214423        -0.505788         3.445045
