19
Iteration:  3732charge 0 multiplicity 1
 C         3.290654         1.655725         0.234986
 C         2.299363         0.811127         1.087001
 C         1.835908         0.859400         2.471051
 O         0.475248         0.398681         2.195883
 C         1.005413        -0.168749         0.875875
 C         0.027602        -0.123829        -0.139305
 C         1.854689        -1.423851         1.384344
 C         2.712490        -0.298874         2.062775
 O         4.006628        -0.512061         2.481655
 H         3.216433         2.781754         0.432450
 H         4.294288         1.216476         0.335702
 H         2.933058         1.642451        -0.747481
 H         1.766230         1.519682         3.315921
 H        -0.590189        -0.841572         0.219378
 H        -0.473013         0.793440        -0.231565
 H         0.338732        -0.418073        -1.155858
 H         1.360476        -2.186555         1.995966
 H         2.532177        -1.811684         0.546612
 H         3.964038        -0.680210         3.432729
