19
Iteration:  3474charge 0 multiplicity 1
 C         3.193525         1.617260         0.258462
 C         2.352688         0.693875         1.057670
 C         1.803872         0.768744         2.551863
 O         0.455996         0.387899         2.198005
 C         1.021805        -0.111159         0.879794
 C         0.070288        -0.101453        -0.205162
 C         1.881127        -1.401879         1.348018
 C         2.746258        -0.391092         2.040188
 O         3.988329        -0.318317         2.528184
 H         3.882781         2.175230         0.815141
 H         3.750663         1.070656        -0.564918
 H         2.447078         2.501657        -0.159331
 H         1.920456         1.302467         3.491588
 H        -0.979414        -0.448211         0.102337
 H         0.105452         0.861904        -0.537743
 H         0.522840        -0.602113        -1.094015
 H         1.317342        -2.100556         2.108853
 H         2.250870        -1.955817         0.477586
 H         4.202565        -0.873746         3.278960
