19
Iteration:  2043charge 0 multiplicity 1
 C         3.128652         1.734174         0.329302
 C         2.301894         0.793913         1.109799
 C         1.818968         0.678938         2.594068
 O         0.464867         0.299396         2.234033
 C         1.027129        -0.124826         0.917286
 C         0.115756        -0.170985        -0.297492
 C         1.865447        -1.306746         1.272071
 C         2.776957        -0.270850         1.999867
 O         4.005894        -0.410687         2.514739
 H         3.929515         2.044723         0.991377
 H         3.695271         1.187575        -0.529180
 H         2.616595         2.490020        -0.159093
 H         2.101456         1.286944         3.477154
 H        -0.841634        -0.710039        -0.091305
 H        -0.117058         0.807084        -0.681610
 H         0.576726        -0.839092        -1.044739
 H         1.226194        -2.113333         1.762162
 H         2.425002        -1.765976         0.452314
 H         3.803136        -0.675473         3.453600
