19
Iteration:  2593charge 0 multiplicity 1
 C         2.918647         1.732737         0.181881
 C         2.347854         0.779278         1.104223
 C         1.888236         0.698562         2.537454
 O         0.431107         0.395961         2.211963
 C         1.076024        -0.106377         0.929086
 C         0.180184         0.004132        -0.269573
 C         1.876555        -1.334141         1.300803
 C         2.798543        -0.427802         2.093437
 O         4.043799        -0.605114         2.611930
 H         3.743946         2.445398         0.513414
 H         3.251321         1.201274        -0.768033
 H         2.117375         2.368282        -0.072021
 H         2.055463         1.268087         3.435585
 H        -0.744066        -0.457772        -0.103097
 H         0.016086         1.012130        -0.558571
 H         0.579426        -0.497803        -1.151506
 H         1.375655        -2.162346         1.789264
 H         2.185578        -1.847300         0.403962
 H         4.158038        -0.216304         3.516351
