19
Iteration:  1021charge 0 multiplicity 1
 C         3.044021         2.139488         0.560790
 C         2.302445         0.867609         1.147629
 C         1.758579         0.590254         2.552198
 O         0.500756         0.139455         2.148939
 C         1.022604        -0.072474         0.847814
 C         0.055887        -0.161260        -0.301940
 C         1.977411        -1.324278         1.200633
 C         2.814220        -0.372975         1.976919
 O         3.994261        -0.657119         2.608814
 H         3.936787         2.567588         1.111775
 H         3.402166         1.899185        -0.520582
 H         2.363450         2.954884         0.520086
 H         1.879817         1.301004         3.331494
 H        -0.914605        -0.570873        -0.194819
 H        -0.114546         0.835970        -0.684676
 H         0.595032        -0.671077        -1.060348
 H         1.501420        -2.106307         1.736071
 H         2.447310        -1.860511         0.398574
 H         4.643956        -0.151956         2.145791
