19
Iteration:   520charge 0 multiplicity 1
 C         2.936216         1.796393         0.270447
 C         2.327036         0.911153         1.210792
 C         1.742403         0.627254         2.629907
 O         0.481581         0.174180         2.186408
 C         1.142827        -0.105257         0.809135
 C         0.029779         0.129426        -0.242606
 C         2.084187        -1.275157         1.048254
 C         2.770231        -0.340325         2.053600
 O         4.000134        -0.679586         2.776218
 H         3.913949         2.269884         0.539649
 H         3.032644         1.326464        -0.642232
 H         2.054830         2.559929         0.250725
 H         1.785960         1.131427         3.571968
 H        -0.693202        -0.647887         0.021370
 H        -0.385379         1.146565        -0.298577
 H         0.302155        -0.314470        -1.247900
 H         1.675315        -2.238750         1.409111
 H         2.840741        -1.361599         0.257692
 H         4.739613        -0.787224         2.106546
