19
Iteration:  4174charge 0 multiplicity 1
 C         3.065807         1.684696         0.171526
 C         2.405881         0.688800         1.057830
 C         1.943446         0.787037         2.471241
 O         0.561026         0.404799         2.220452
 C         1.003372        -0.075147         0.934706
 C        -0.083608         0.129205        -0.132088
 C         1.819201        -1.422055         1.332094
 C         2.785713        -0.363901         2.109625
 O         4.069563        -0.668049         2.513837
 H         3.421468         2.556252         0.720668
 H         3.798902         1.192710        -0.437313
 H         2.269584         2.168280        -0.582578
 H         2.174141         1.569999         3.195914
 H        -1.024303        -0.390784         0.342358
 H        -0.268773         1.279133        -0.222910
 H         0.213036        -0.314492        -1.172908
 H         1.179353        -2.094892         1.902015
 H         2.152315        -1.937399         0.457159
 H         4.094401        -1.036527         3.419430
