19
Iteration:  2576
 C         2.796822         1.765821         0.156099
 C         2.334983         0.795692         1.151268
 C         1.850993         0.740622         2.578559
 O         0.567788         0.412437         2.265278
 C         1.081514        -0.065410         0.910789
 C         0.250027         0.004056        -0.322998
 C         1.889289        -1.460482         1.319104
 C         2.773904        -0.380528         1.977293
 O         3.971197        -0.664342         2.626997
 H         3.693475         2.202079         0.489835
 H         3.109221         1.330262        -0.813456
 H         2.065388         2.547041        -0.324937
 H         2.213269         1.422251         3.418552
 H        -0.744747        -0.559415        -0.039169
 H         0.102750         1.085360        -0.652959
 H         0.813844        -0.562448        -1.105056
 H         1.323044        -2.080015         2.079746
 H         2.620194        -1.791678         0.562656
 H         3.818255        -0.437282         3.582053
