19
Iteration:  4647charge 0 multiplicity 1
 C         3.044012         1.868438         0.218762
 C         2.393161         0.736995         1.036060
 C         1.914447         0.811097         2.472001
 O         0.573512         0.485591         2.124934
 C         1.077078        -0.126244         0.891270
 C         0.014213        -0.195938        -0.168885
 C         1.776237        -1.387137         1.388050
 C         2.786683        -0.425788         2.009334
 O         4.010181        -0.596710         2.641421
 H         2.106853         2.177204        -0.357755
 H         3.375151         2.800977         0.788851
 H         3.880075         1.638772        -0.515465
 H         2.190773         1.422174         3.338791
 H        -0.588786        -1.158769        -0.054224
 H        -0.545915         0.737443        -0.070446
 H         0.433323        -0.059607        -1.180029
 H         1.308406        -1.934878         2.260788
 H         2.108414        -2.182686         0.659747
 H         3.699498        -1.108994         3.414478
