19
Iteration:  1866
 C         3.058508         1.889763         0.340377
 C         2.312829         0.766269         1.090708
 C         1.827648         0.716787         2.528456
 O         0.410016         0.350662         2.190302
 C         1.048902        -0.045259         0.970412
 C         0.107565        -0.163376        -0.272071
 C         1.902461        -1.434365         1.268737
 C         2.769702        -0.439252         2.020134
 O         4.080981        -0.541111         2.564381
 H         3.771067         2.522758         0.846369
 H         3.535031         1.379765        -0.617322
 H         2.281770         2.562690         0.095441
 H         1.887550         1.340539         3.399032
 H        -0.904559        -0.377282         0.026160
 H         0.080037         0.644449        -1.024989
 H         0.564346        -0.920819        -0.878119
 H         1.259663        -2.139070         1.824758
 H         2.487599        -1.760823         0.422821
 H         4.217130         0.229718         3.182322
