19
Iteration:  2822
 C         3.132338         1.819885         0.165131
 C         2.352763         0.823479         1.126735
 C         1.827748         0.798532         2.533308
 O         0.475557         0.358948         2.192377
 C         1.035019        -0.101241         0.962729
 C         0.094413        -0.146471        -0.226846
 C         1.827380        -1.360294         1.346886
 C         2.738924        -0.347229         2.049196
 O         4.003361        -0.640411         2.513529
 H         3.925602         2.468735         0.791233
 H         3.719488         1.443276        -0.677944
 H         2.468878         2.666036        -0.068154
 H         1.821193         1.500730         3.406709
 H        -0.614184        -0.895411         0.072108
 H        -0.375703         0.835561        -0.320783
 H         0.580168        -0.404944        -1.190222
 H         1.441207        -2.084169         1.993498
 H         2.410718        -1.850489         0.549973
 H         4.220765        -1.089367         3.370553
