19
Iteration:   228
 C         3.062217         2.198353         0.728293
 C         2.310319         0.863309         1.107716
 C         1.844752         0.596422         2.471374
 O         0.502577         0.156907         2.143344
 C         1.003563        -0.121651         0.898501
 C        -0.058173        -0.169367        -0.301099
 C         1.978299        -1.321131         1.081250
 C         2.817010        -0.355379         1.865663
 O         4.032476        -0.620025         2.666363
 H         3.786547         2.370365         1.556934
 H         3.614239         2.059470        -0.263005
 H         2.407600         2.982035         0.633108
 H         2.079282         1.180871         3.378332
 H        -0.791866        -0.994676        -0.202508
 H        -0.726293         0.731874        -0.261525
 H         0.494481        -0.212395        -1.288835
 H         1.518174        -2.066204         1.775772
 H         2.303855        -1.873207         0.102525
 H         4.623980        -1.134343         2.104926
