19
Iteration:   262charge 0 multiplicity 1
 C         3.024140         2.113987         0.661113
 C         2.322672         0.900800         1.150288
 C         1.779854         0.641161         2.556981
 O         0.413147         0.180808         2.173208
 C         1.104421        -0.027741         0.832679
 C         0.110027        -0.184202        -0.281290
 C         1.972213        -1.356683         1.186904
 C         2.761451        -0.349766         2.054603
 O         4.006773        -0.727930         2.440112
 H         3.749050         2.538769         1.353095
 H         3.547620         1.973675        -0.358213
 H         2.340982         2.873201         0.516323
 H         1.784183         1.246591         3.526294
 H        -0.337993        -1.204979        -0.416140
 H        -0.551010         0.650167        -0.201737
 H         0.578244         0.072704        -1.229811
 H         1.647386        -2.153028         1.865676
 H         2.343162        -1.761547         0.174717
 H         4.644236        -0.418363         1.733842
