19
Iteration:  2650charge 0 multiplicity 1
 C         3.333725         1.720595         0.386144
 C         2.331509         0.781132         1.078627
 C         1.799625         0.808928         2.527055
 O         0.474144         0.366929         2.186089
 C         1.038886        -0.124358         0.904751
 C        -0.082167        -0.206212        -0.162218
 C         1.850121        -1.376274         1.281376
 C         2.764893        -0.302568         1.983703
 O         4.008818        -0.463893         2.476175
 H         4.022293         2.053391         1.151171
 H         3.942993         1.314670        -0.528998
 H         2.812723         2.651680         0.013906
 H         1.706388         1.475748         3.469508
 H        -0.830477        -1.024050        -0.037482
 H        -0.648692         0.721740        -0.319000
 H         0.610042        -0.411900        -0.975096
 H         1.319122        -2.061230         1.820950
 H         2.254021        -1.703184         0.375416
 H         4.011791        -1.146094         3.145254
