19
Iteration:  3548charge 0 multiplicity 1
 C         3.149217         1.726867         0.160131
 C         2.301876         0.824004         1.149487
 C         1.741397         0.845038         2.469026
 O         0.466623         0.396453         2.168778
 C         1.085996        -0.206076         0.933402
 C         0.106793        -0.196856        -0.208778
 C         1.916580        -1.336301         1.361973
 C         2.721385        -0.313368         2.100643
 O         4.003757        -0.551697         2.532481
 H         4.226061         1.584086         0.351308
 H         2.948867         1.519586        -0.880574
 H         3.054625         2.743353         0.443397
 H         2.010553         1.505991         3.253909
 H        -0.686824        -0.969325         0.167880
 H        -0.355970         0.823963        -0.214908
 H         0.519130        -0.372493        -1.293199
 H         1.292789        -2.064597         1.881779
 H         2.453619        -1.958919         0.675396
 H         4.096131        -0.517014         3.511527
