19
Iteration:  3708
 C         3.292483         1.523680         0.214949
 C         2.364780         0.742868         1.122556
 C         1.767377         0.792309         2.502384
 O         0.437688         0.307103         2.110618
 C         1.000787        -0.175977         0.821511
 C        -0.075690        -0.020673        -0.141390
 C         1.852360        -1.375198         1.403951
 C         2.769639        -0.270860         2.120784
 O         4.103457        -0.373805         2.503057
 H         3.209674         2.519053         0.679716
 H         4.296915         1.153090         0.270629
 H         2.918751         1.777650        -0.740257
 H         1.785873         1.427964         3.329209
 H        -0.935724        -0.526144         0.281118
 H        -0.276619         1.097451        -0.327186
 H         0.145180        -0.377631        -1.125053
 H         1.396404        -2.005259         2.100056
 H         2.328247        -1.854292         0.491499
 H         4.180780        -0.807462         3.387327
