19
Iteration:   672
 C         3.081627         1.978572         0.446679
 C         2.199396         0.909631         1.125878
 C         1.792550         0.702761         2.476639
 O         0.559956         0.090670         2.213220
 C         1.032860        -0.172001         0.864856
 C         0.044038        -0.034752        -0.228092
 C         2.026081        -1.301251         1.179060
 C         2.730383        -0.336038         1.924520
 O         3.915995        -0.619024         2.694862
 H         3.886904         2.056882         1.234138
 H         3.568566         1.532872        -0.511273
 H         2.705730         3.044763         0.268950
 H         2.221619         1.039265         3.350108
 H        -0.858727        -0.627293        -0.241117
 H        -0.279395         1.002231        -0.442460
 H         0.725678        -0.398526        -1.137297
 H         1.614880        -2.189703         1.747647
 H         2.518541        -1.550256         0.228954
 H         4.752709        -0.502572         2.217226
