19
Iteration:   116charge 0 multiplicity 1
 C         2.791098         1.986694         0.519195
 C         2.298398         0.770957         1.301958
 C         1.749709         0.460542         2.707586
 O         0.305410         0.323091         2.164725
 C         1.100047        -0.144373         0.896323
 C         0.220408         0.082874        -0.371540
 C         1.927346        -1.396990         1.129268
 C         2.843026        -0.413532         1.977413
 O         4.243681        -0.628461         2.478150
 H         3.607211         2.606496         0.965311
 H         3.082033         1.655090        -0.517233
 H         1.956260         2.702814         0.342750
 H         2.010899         0.854356         3.737272
 H        -0.565297        -0.633698        -0.721374
 H        -0.225983         1.117356        -0.152062
 H         0.875674         0.198370        -1.328772
 H         1.341934        -2.389470         1.358352
 H         2.634227        -1.672739         0.239854
 H         4.703339         0.204947         2.583656
