19
Iteration:  3097charge 0 multiplicity 1
 C         3.245411         1.588368         0.341140
 C         2.286011         0.770647         1.103190
 C         1.726196         0.773507         2.478117
 O         0.457232         0.358208         2.123008
 C         0.972089        -0.094427         0.903689
 C        -0.051374        -0.074213        -0.250899
 C         1.938000        -1.437814         1.395422
 C         2.759885        -0.375663         2.045283
 O         4.114530        -0.351887         2.512087
 H         4.269372         1.670796         0.960103
 H         3.477459         1.319080        -0.711463
 H         2.870438         2.602301         0.319226
 H         1.947582         1.469361         3.442213
 H        -0.986047        -0.533350         0.202083
 H        -0.289232         1.035553        -0.469656
 H         0.284874        -0.569059        -1.162582
 H         1.400862        -2.347750         1.908434
 H         2.594726        -1.795793         0.468889
 H         4.131650        -0.822439         3.393033
