19
Iteration:   369
 C         2.916714         1.945372         0.375445
 C         2.332418         0.838719         1.226246
 C         1.772155         0.509339         2.596579
 O         0.493128         0.270364         2.118270
 C         1.112303        -0.125091         0.862326
 C         0.039489         0.028235        -0.226577
 C         2.010783        -1.315888         1.048716
 C         2.826736        -0.444357         2.032417
 O         4.007995        -0.581453         2.708001
 H         3.801964         2.375069         0.917157
 H         3.119360         1.700249        -0.715439
 H         2.111546         2.760588         0.354027
 H         1.872787         1.005083         3.633684
 H        -0.924419        -0.470065         0.037100
 H        -0.285004         1.090081        -0.138389
 H         0.417517        -0.099390        -1.286039
 H         1.650130        -2.318926         1.295557
 H         2.606289        -1.467927         0.086585
 H         4.851509        -0.914783         2.332425
