19
Iteration:  2102charge 0 multiplicity 1
 C         3.001029         1.908775         0.254520
 C         2.356314         0.788424         1.061717
 C         1.815779         0.761444         2.513731
 O         0.472595         0.341752         2.037027
 C         1.142853        -0.095870         0.865308
 C        -0.001769        -0.138528        -0.213683
 C         1.967969        -1.400092         1.377311
 C         2.746408        -0.375640         2.091239
 O         4.034752        -0.652364         2.667152
 H         3.789613         2.406168         0.932685
 H         3.494409         1.514989        -0.610566
 H         2.375985         2.862793         0.018510
 H         2.059287         1.414413         3.310963
 H        -0.663055        -0.735142         0.399573
 H        -0.593555         0.712926        -0.599479
 H         0.261081        -0.746700        -1.075330
 H         1.347287        -2.174259         1.853468
 H         2.557171        -1.728694         0.473598
 H         4.280370        -0.019274         3.334319
