19
Iteration:    63charge 0 multiplicity 1
 C         3.035984         2.334977         0.622743
 C         2.225849         1.007583         1.126488
 C         1.796297         0.645139         2.479082
 O         0.541979         0.116809         2.221621
 C         1.082101        -0.103610         0.849264
 C         0.003317        -0.197133        -0.302710
 C         2.046950        -1.344081         1.136133
 C         2.818922        -0.390984         1.940170
 O         3.931705        -0.863153         2.559298
 H         3.836843         2.542569         1.413324
 H         3.683466         2.043844        -0.334288
 H         2.537228         3.241019         0.415383
 H         1.855496         1.230031         3.450480
 H        -0.333027        -1.202735        -0.522474
 H        -0.986047         0.221425         0.061269
 H         0.395676         0.435575        -1.166144
 H         1.518827        -2.157428         1.694045
 H         2.616831        -1.761604         0.235237
 H         4.545952        -0.167254         2.752145
