19
Iteration:  4933charge 0 multiplicity 1
 C         3.181183         1.529286         0.161148
 C         2.357169         0.755301         1.189047
 C         1.778378         0.807441         2.523529
 O         0.481274         0.233290         2.196627
 C         1.016943        -0.051404         0.953038
 C         0.167561        -0.168829        -0.303225
 C         1.814481        -1.284781         1.333359
 C         2.697623        -0.327501         2.204707
 O         4.035503        -0.271481         2.519679
 H         2.926630         1.029558        -0.836658
 H         2.766000         2.559527        -0.039638
 H         4.198035         1.517459         0.434119
 H         1.727699         1.608047         3.255572
 H        -0.922250        -0.619041        -0.067221
 H        -0.127352         0.807245        -0.842614
 H         0.650827        -0.839145        -1.131673
 H         1.270587        -2.161198         1.677869
 H         2.516451        -1.775867         0.676256
 H         3.933913        -0.691461         3.391040
