19
Iteration:   966charge 0 multiplicity 1
 C         2.922115         2.071032         0.495623
 C         2.346808         0.833231         1.210909
 C         1.760078         0.676863         2.587999
 O         0.434581         0.189657         2.209397
 C         1.068575        -0.118622         0.839996
 C         0.117971        -0.089629        -0.346865
 C         1.975484        -1.377143         1.127004
 C         2.826689        -0.385552         1.975336
 O         4.068789        -0.589408         2.571071
 H         3.749106         2.461882         1.127347
 H         3.416632         1.862447        -0.529373
 H         2.186018         2.753573         0.205848
 H         2.092386         1.065574         3.629374
 H        -0.504239        -0.943356        -0.315829
 H        -0.408685         0.853825        -0.288299
 H         0.718882        -0.019061        -1.258055
 H         1.553246        -2.301337         1.532300
 H         2.468737        -1.530299         0.174903
 H         3.829069        -1.207527         3.265212
