19
Iteration:  1028charge 0 multiplicity 1
 C         3.007832         2.101204         0.546585
 C         2.330416         0.834782         1.078659
 C         1.765365         0.537674         2.573493
 O         0.503362         0.144216         2.195544
 C         1.064572        -0.086567         0.852838
 C         0.055352        -0.147346        -0.289445
 C         1.973579        -1.324024         1.200737
 C         2.780036        -0.289386         1.943534
 O         3.959382        -0.641509         2.586702
 H         3.821858         2.281032         1.259601
 H         3.529905         1.873582        -0.391625
 H         2.461798         3.108432         0.569667
 H         2.079453         1.208579         3.514203
 H        -0.975409        -0.557038        -0.385817
 H         0.041848         0.869865        -0.775085
 H         0.710168        -0.641011        -1.135948
 H         1.529627        -2.076778         1.986863
 H         2.443821        -1.766327         0.319913
 H         4.586358         0.051176         2.358025
