19
Iteration:  1957
 C         2.955986         1.916181         0.217754
 C         2.342581         0.796848         1.065851
 C         1.867113         0.631300         2.526767
 O         0.462359         0.362583         2.221035
 C         1.000338        -0.069569         0.925397
 C         0.202296        -0.182529        -0.318010
 C         1.839440        -1.355414         1.363862
 C         2.847574        -0.457657         2.022065
 O         4.039157        -0.543744         2.639326
 H         3.921389         2.355304         0.612326
 H         3.350259         1.386949        -0.765616
 H         2.268479         2.761381        -0.006520
 H         2.091265         1.388796         3.400393
 H        -0.482455        -1.056649        -0.315385
 H        -0.466110         0.650037        -0.257913
 H         0.818006         0.007347        -1.224735
 H         1.186038        -2.027964         1.901998
 H         2.208790        -1.612869         0.379380
 H         3.786775        -0.381911         3.579881
