19
Iteration:  2658charge 0 multiplicity 1
 C         3.394313         1.761551         0.384948
 C         2.334134         0.822146         1.130618
 C         1.773433         0.801637         2.488372
 O         0.452855         0.401147         2.182215
 C         0.922043        -0.101428         0.934718
 C        -0.069046        -0.257385        -0.179146
 C         1.848871        -1.364214         1.217186
 C         2.735082        -0.379395         2.020461
 O         4.077366        -0.448261         2.495216
 H         4.204387         2.185388         1.029213
 H         3.795869         1.235670        -0.420095
 H         2.867212         2.557978         0.095736
 H         1.960806         1.462509         3.370704
 H        -0.699245        -1.053116         0.004471
 H        -0.646500         0.607040        -0.315253
 H         0.483016        -0.456474        -1.108628
 H         1.296687        -2.161677         1.854475
 H         2.084562        -1.918544         0.284791
 H         4.268193        -1.160835         3.106675
