19
Iteration:  1381
 C         2.971380         1.897553         0.365338
 C         2.366903         0.766716         1.140024
 C         1.811321         0.765962         2.505835
 O         0.472367         0.268577         2.243140
 C         0.996502        -0.053474         0.874874
 C         0.189252        -0.120415        -0.349385
 C         1.855183        -1.388482         1.332494
 C         2.802931        -0.420241         2.022095
 O         4.030831        -0.581540         2.552563
 H         3.947177         2.265929         0.854192
 H         3.359451         1.648941        -0.677310
 H         2.255452         2.745015         0.306474
 H         1.915373         1.126283         3.554874
 H        -0.482348        -1.047365        -0.200783
 H        -0.361687         0.827629        -0.478626
 H         0.816880        -0.314560        -1.216446
 H         1.280140        -2.056938         2.002626
 H         2.286929        -1.934650         0.428879
 H         4.375447         0.294905         2.712523
