19
Iteration:  3449charge 0 multiplicity 1
 C         3.059513         1.742613         0.220385
 C         2.313106         0.763985         1.032186
 C         1.793904         0.883487         2.487127
 O         0.457842         0.390357         2.120802
 C         1.002096        -0.122135         0.900094
 C         0.057225        -0.137948        -0.253741
 C         1.898967        -1.411270         1.435405
 C         2.797067        -0.319527         2.112106
 O         4.155537        -0.618948         2.604169
 H         3.585512         2.531223         0.878605
 H         3.832638         1.212436        -0.355623
 H         2.360224         2.346588        -0.415488
 H         1.732496         1.748026         3.230782
 H        -0.848053        -0.705821         0.102872
 H        -0.255772         0.986680        -0.298514
 H         0.407964        -0.361191        -1.327395
 H         1.355125        -2.127090         2.085396
 H         2.301098        -1.873174         0.498002
 H         4.025769        -0.964832         3.506640
