19
Iteration:  3985charge 0 multiplicity 1
 C         3.005304         1.753037         0.090399
 C         2.359682         0.756364         1.099752
 C         1.924377         0.856171         2.549029
 O         0.499890         0.451339         2.218105
 C         1.075920        -0.119700         0.948621
 C         0.067810        -0.060979        -0.212301
 C         1.818900        -1.283754         1.395670
 C         2.796166        -0.401241         2.127816
 O         3.991404        -0.756228         2.492832
 H         3.077454         1.201035        -0.859244
 H         2.416465         2.672621        -0.079804
 H         4.000914         1.982609         0.272112
 H         2.243043         1.535807         3.371019
 H        -0.775108        -0.676511         0.154083
 H        -0.205701         1.001162        -0.451645
 H         0.548240        -0.501830        -1.198976
 H         1.343768        -1.870559         2.084714
 H         2.229207        -1.780690         0.592484
 H         4.051846        -0.759566         3.463708
