19
Iteration:   826
 C         2.928870         2.102995         0.617465
 C         2.392209         0.842318         1.189241
 C         1.836866         0.660684         2.556252
 O         0.422895         0.276126         2.104637
 C         1.104751        -0.123926         0.763721
 C         0.025502        -0.162281        -0.323752
 C         2.026600        -1.317153         1.156087
 C         2.799390        -0.446763         2.013767
 O         4.013475        -0.652702         2.639764
 H         3.815694         2.411466         1.222242
 H         3.259800         2.092563        -0.425682
 H         2.102502         2.828552         0.662256
 H         2.062912         1.277880         3.521964
 H        -0.786815        -0.797640         0.222222
 H        -0.470434         0.814353        -0.419125
 H         0.046655        -0.613256        -1.324676
 H         1.637808        -2.303497         1.467588
 H         2.719332        -1.576936         0.269542
 H         4.627690        -0.858521         1.933202
