19
Iteration:  1451charge 0 multiplicity 1
 C         3.079560         1.902983         0.283146
 C         2.256040         0.885223         1.036280
 C         1.783232         0.718940         2.555153
 O         0.532258         0.185336         2.184978
 C         1.058109        -0.157990         0.814109
 C         0.060606        -0.123074        -0.233434
 C         1.944158        -1.310260         1.335190
 C         2.752517        -0.250046         2.040013
 O         3.970164        -0.596878         2.674404
 H         3.866244         2.110393         0.998843
 H         3.706270         1.501308        -0.669923
 H         2.546584         2.804953        -0.022417
 H         2.031001         1.156555         3.602830
 H        -0.880239        -0.316913         0.224311
 H         0.108411         0.875032        -0.700337
 H         0.160806        -0.976839        -0.952183
 H         1.377088        -2.057339         1.901580
 H         2.471629        -1.728315         0.494481
 H         4.723360        -0.848454         2.123143
