19
Iteration:   691
 C         3.034325         1.909033         0.395231
 C         2.279976         0.834300         1.119308
 C         1.778949         0.606407         2.622590
 O         0.440086         0.109927         2.227541
 C         1.117869        -0.145022         0.837630
 C         0.050442         0.070318        -0.269530
 C         2.004496        -1.396750         1.076371
 C         2.806086        -0.319727         1.978393
 O         3.976617        -0.481560         2.711225
 H         3.922426         2.175493         0.971434
 H         3.576877         1.641456        -0.607343
 H         2.419525         2.698912         0.228704
 H         1.885027         1.362387         3.350557
 H        -0.778873        -0.549249        -0.061146
 H        -0.314588         1.101450        -0.135777
 H         0.503939        -0.199541        -1.223186
 H         1.526359        -2.269000         1.579552
 H         2.523669        -1.701909         0.195476
 H         4.563961        -1.095511         2.281624
