19
Iteration:  3737charge 0 multiplicity 1
 C         3.254470         1.633540         0.241345
 C         2.308364         0.821979         1.093085
 C         1.847763         0.858430         2.487690
 O         0.484753         0.416966         2.203608
 C         1.003669        -0.144135         0.906263
 C         0.018617        -0.154891        -0.204806
 C         1.831339        -1.398064         1.357454
 C         2.712563        -0.266497         2.042268
 O         4.030396        -0.542933         2.508701
 H         3.105378         2.660497         0.538716
 H         4.346841         1.388403         0.331901
 H         2.991548         1.698816        -0.915047
 H         1.904132         1.556032         3.376425
 H        -0.681604        -1.046461         0.212545
 H        -0.595840         0.826109        -0.198376
 H         0.550851        -0.495571        -1.114412
 H         1.498655        -2.303212         2.023500
 H         2.277570        -1.858499         0.497942
 H         4.004424        -0.680263         3.475349
