19
Iteration:  1054charge 0 multiplicity 1
 C         2.990106         1.988433         0.580807
 C         2.267490         0.833424         1.225798
 C         1.726006         0.653164         2.537972
 O         0.435167         0.205278         2.192266
 C         1.066465        -0.112948         0.874554
 C         0.150170        -0.064111        -0.317122
 C         1.965346        -1.430885         1.158558
 C         2.774208        -0.423020         1.968651
 O         4.113372        -0.565932         2.488116
 H         3.865025         2.423616         1.172428
 H         3.342505         1.634599        -0.465972
 H         2.323054         2.795265         0.353651
 H         1.960157         1.305655         3.311667
 H        -0.794254        -0.531324        -0.204262
 H         0.017665         0.971139        -0.590934
 H         0.570181        -0.519842        -1.180684
 H         1.519853        -2.206650         1.722124
 H         2.420252        -1.668223         0.201162
 H         4.088338         0.150403         3.154039
