19
Iteration:  2479charge 0 multiplicity 1
 C         3.279483         1.721103         0.479063
 C         2.314533         0.834877         1.083968
 C         1.810350         0.799694         2.494441
 O         0.491094         0.353343         2.214234
 C         0.968398        -0.149255         0.869775
 C        -0.010897        -0.249125        -0.235049
 C         1.844792        -1.285379         1.291323
 C         2.757471        -0.299174         1.961988
 O         4.037605        -0.488152         2.454622
 H         4.156199         1.837455         1.150946
 H         3.597303         1.184354        -0.391898
 H         2.864475         2.655275        -0.006247
 H         1.880604         1.457008         3.392377
 H        -0.654576        -1.091935        -0.001011
 H        -0.481355         0.724163        -0.342866
 H         0.506534        -0.534809        -1.106434
 H         1.304948        -2.057275         2.024714
 H         2.310082        -1.979602         0.513196
 H         3.853452        -0.575098         3.420858
