19
Iteration:  4588charge 0 multiplicity 1
 C         2.989328         1.735157         0.141132
 C         2.338052         0.777366         1.136606
 C         1.887656         0.851357         2.566903
 O         0.485360         0.449149         2.233808
 C         1.084985        -0.043715         0.935072
 C         0.188342        -0.140583        -0.240091
 C         1.771190        -1.369861         1.340061
 C         2.714578        -0.385447         2.097424
 O         4.073265        -0.645072         2.500442
 H         2.349234         1.668302        -0.706359
 H         3.053627         2.723118         0.514834
 H         4.021032         1.296473        -0.213755
 H         2.173563         1.358926         3.492881
 H        -0.784474        -0.555831        -0.002773
 H        -0.278369         0.865473        -0.733944
 H         0.558212        -0.801711        -1.042452
 H         1.241798        -2.102440         1.907779
 H         2.390596        -1.781695         0.549418
 H         4.018238        -0.695050         3.473479
