19
Iteration:  3152charge 0 multiplicity 1
 C         2.881606         1.717056         0.133807
 C         2.321136         0.764512         1.138588
 C         1.818183         0.810305         2.536690
 O         0.478789         0.399874         2.220186
 C         1.046248        -0.123424         0.937102
 C         0.181686        -0.089937        -0.352460
 C         1.906230        -1.293705         1.393080
 C         2.808934        -0.327908         2.066623
 O         4.064681        -0.659312         2.602725
 H         3.961715         2.036006         0.522161
 H         3.073973         1.136278        -0.771419
 H         2.291978         2.609386         0.075981
 H         2.023126         1.609502         3.390865
 H        -0.775814        -0.629988        -0.401948
 H         0.092475         1.010265        -0.517530
 H         0.739076        -0.436935        -1.214710
 H         1.258260        -2.022666         2.014746
 H         2.545536        -1.895132         0.631635
 H         3.894159        -0.821731         3.575731
