19
Iteration:  4616charge 0 multiplicity 1
 C         2.995538         1.906831         0.180046
 C         2.388351         0.704827         0.997171
 C         1.890641         0.854934         2.429342
 O         0.489574         0.487844         2.189891
 C         1.055036        -0.114058         0.951132
 C         0.074225        -0.148371        -0.247711
 C         1.844247        -1.352180         1.461572
 C         2.820745        -0.362939         2.059796
 O         4.049609        -0.767116         2.611388
 H         2.182192         2.011150        -0.608901
 H         2.839747         2.816553         0.854460
 H         3.911544         1.716285        -0.284600
 H         2.190779         1.534517         3.238975
 H        -0.767100        -0.873361        -0.178122
 H        -0.432735         0.729795        -0.367725
 H         0.539430        -0.375252        -1.233132
 H         1.387541        -1.970556         2.357393
 H         2.359526        -1.948109         0.670194
 H         3.713278        -1.114236         3.463479
