19
Iteration:  4852charge 0 multiplicity 1
 C         2.999449         1.838552         0.192948
 C         2.311962         0.747123         1.025802
 C         1.919370         0.817604         2.458754
 O         0.498719         0.434372         2.127478
 C         1.096382        -0.153095         0.865797
 C         0.068195        -0.238095        -0.279936
 C         1.798327        -1.361233         1.483143
 C         2.800617        -0.378616         2.127107
 O         4.055843        -0.582861         2.658059
 H         3.996284         1.578514        -0.056663
 H         2.484852         1.997548        -0.711094
 H         3.032150         2.890534         0.604553
 H         2.253901         1.532271         3.227689
 H        -0.549336        -1.086759        -0.236506
 H        -0.547507         0.621958        -0.372153
 H         0.602494        -0.316671        -1.220719
 H         1.095831        -1.847720         2.184346
 H         2.311148        -1.932851         0.638842
 H         3.887774        -0.402562         3.599920
