19
Iteration:  3156charge 0 multiplicity 1
 C         2.900375         1.707723         0.143973
 C         2.306685         0.799866         1.164907
 C         1.826902         0.797538         2.511339
 O         0.472631         0.425530         2.217928
 C         1.069559        -0.140123         0.924087
 C         0.208726        -0.091633        -0.334010
 C         1.931136        -1.311770         1.414059
 C         2.784032        -0.298112         2.075743
 O         4.076486        -0.700914         2.600927
 H         3.802551         2.052593         0.521616
 H         2.973583         1.289093        -0.873730
 H         2.116713         2.566751        -0.034292
 H         1.958985         1.560561         3.205891
 H        -0.809662        -0.583370        -0.402189
 H        -0.081949         0.975669        -0.419060
 H         0.787742        -0.472563        -1.274503
 H         1.331223        -1.995808         1.999180
 H         2.438700        -1.813211         0.596476
 H         3.741589        -0.810163         3.494406
