19
Iteration:   778
 C         2.885515         2.059280         0.547351
 C         2.291343         0.879333         1.122056
 C         1.785556         0.622317         2.565732
 O         0.477170         0.212199         2.281818
 C         1.087762        -0.072230         0.810399
 C         0.195041        -0.056405        -0.398607
 C         1.975027        -1.405449         1.263959
 C         2.789715        -0.340152         1.970143
 O         4.002586        -0.721822         2.505160
 H         3.665619         2.430643         1.198235
 H         3.363704         1.820354        -0.448241
 H         2.187173         2.813980         0.366912
 H         1.974228         1.057316         3.500985
 H        -0.436370        -0.885702        -0.385491
 H        -0.374023         0.847112        -0.674116
 H         0.830890        -0.234826        -1.286823
 H         1.463143        -2.096307         1.973171
 H         2.382280        -1.978130         0.461850
 H         4.511825         0.053560         2.840458
