19
Iteration:  4365charge 0 multiplicity 1
 C         3.129445         1.613842         0.154122
 C         2.318339         0.812935         1.140015
 C         1.889747         0.747597         2.558156
 O         0.499813         0.408902         2.304573
 C         0.939161        -0.093495         0.877407
 C        -0.050491         0.031134        -0.251285
 C         1.806160        -1.283941         1.319604
 C         2.777042        -0.360590         2.056583
 O         4.156933        -0.633031         2.524901
 H         4.076523         0.952108         0.041083
 H         2.619852         1.479682        -0.892739
 H         3.482645         2.560316         0.374267
 H         1.975711         1.528235         3.311784
 H        -0.982915        -0.574206         0.187131
 H        -0.273120         1.059779        -0.558121
 H         0.255778        -0.601622        -1.192486
 H         1.453961        -2.043134         1.916492
 H         2.307424        -1.774844         0.508162
 H         4.233007        -0.677919         3.491774
