19
Iteration:  3030
 C         3.150035         1.780096         0.302866
 C         2.382229         0.786309         1.117955
 C         1.858769         0.793852         2.470545
 O         0.473833         0.492110         2.201556
 C         0.996089        -0.049697         0.905076
 C         0.040420        -0.303227        -0.279206
 C         1.757005        -1.301430         1.355102
 C         2.774143        -0.437991         2.022075
 O         4.098043        -0.547896         2.566182
 H         3.829781         2.493121         0.898791
 H         3.679294         1.262882        -0.468028
 H         2.391292         2.425267        -0.087897
 H         1.905355         1.174426         3.508575
 H        -0.583665        -1.231869        -0.207553
 H        -0.596560         0.642680        -0.471534
 H         0.551229        -0.372603        -1.235476
 H         1.269466        -2.200591         1.919089
 H         2.303391        -1.667307         0.384309
 H         3.967544        -0.911673         3.452655
