19
Iteration:   711charge 0 multiplicity 1
 C         2.936816         1.857811         0.404664
 C         2.370565         0.821248         1.250525
 C         1.723332         0.539572         2.543975
 O         0.447868         0.193554         2.075083
 C         1.062499        -0.064241         0.867454
 C         0.080230         0.099814        -0.272124
 C         1.974593        -1.333522         1.153281
 C         2.805934        -0.481759         2.094442
 O         4.117081        -0.416732         2.638882
 H         3.814754         2.394452         0.677667
 H         3.264685         1.341457        -0.514049
 H         2.143564         2.493704         0.092632
 H         1.671101         0.716824         3.610324
 H        -0.720482        -0.622808        -0.084172
 H        -0.380960         1.094085        -0.093800
 H         0.494241        -0.052654        -1.237525
 H         1.495709        -2.258998         1.482216
 H         2.589643        -1.573010         0.293866
 H         4.511072        -1.299427         2.558067
