19
Iteration:   306
 C         2.887706         1.900268         0.408469
 C         2.259420         0.788420         1.272602
 C         1.749546         0.493448         2.635469
 O         0.447777         0.176676         2.266875
 C         1.032019        -0.088654         0.924387
 C         0.230068         0.157749        -0.354515
 C         1.976994        -1.379036         1.155439
 C         2.809506        -0.463839         1.888363
 O         4.041709        -0.477116         2.600002
 H         3.706364         2.361153         0.944246
 H         3.272385         1.482045        -0.587035
 H         2.236815         2.676422         0.212354
 H         1.980259         1.040159         3.614502
 H        -0.550656        -0.656820        -0.450503
 H        -0.160366         1.151364        -0.398292
 H         0.877929         0.064865        -1.215029
 H         1.559223        -2.333544         1.510456
 H         2.463419        -1.531397         0.119090
 H         4.799607        -0.429988         1.942865
