19
Iteration:  1027charge 0 multiplicity 1
 C         3.016443         2.107660         0.544443
 C         2.325560         0.834602         1.087018
 C         1.758916         0.541422         2.571083
 O         0.507397         0.142349         2.187858
 C         1.059922        -0.078542         0.852178
 C         0.053905        -0.152708        -0.285820
 C         1.974592        -1.320545         1.201875
 C         2.785273        -0.299032         1.949774
 O         3.961517        -0.646436         2.590998
 H         3.831602         2.338344         1.225245
 H         3.501086         1.873900        -0.368957
 H         2.449740         3.114736         0.577856
 H         2.065979         1.227253         3.479886
 H        -1.009191        -0.560821        -0.388866
 H         0.028626         0.868675        -0.776818
 H         0.708203        -0.633809        -1.128502
 H         1.529716        -2.090032         1.969138
 H         2.450505        -1.805841         0.308354
 H         4.605514         0.049252         2.307634
