19
Iteration:  1262charge 0 multiplicity 1
 C         3.013778         1.920354         0.399998
 C         2.284539         0.789299         1.093509
 C         1.710730         0.730714         2.534621
 O         0.458513         0.180277         2.175224
 C         1.093088        -0.111947         0.876244
 C         0.096141        -0.036811        -0.303349
 C         1.968071        -1.394783         1.247488
 C         2.749984        -0.334032         2.084656
 O         4.087072        -0.510470         2.609295
 H         3.909275         2.231177         0.980620
 H         3.569352         1.552574        -0.515399
 H         2.418804         2.710433         0.164316
 H         1.736575         1.287825         3.573925
 H        -0.777582        -0.611147         0.114042
 H        -0.163897         0.999039        -0.518600
 H         0.323837        -0.523871        -1.218750
 H         1.530526        -2.208667         1.748681
 H         2.710865        -1.665621         0.453157
 H         4.381434        -1.315499         2.182767
