19
Iteration:  1200charge 0 multiplicity 1
 C         2.991959         1.992594         0.525777
 C         2.278617         0.833308         1.113082
 C         1.837983         0.658100         2.517887
 O         0.484323         0.200102         2.231732
 C         0.962822        -0.123219         0.871964
 C         0.208497        -0.158613        -0.377385
 C         1.930233        -1.296125         1.294102
 C         2.787367        -0.313224         1.996259
 O         3.968916        -0.630796         2.568702
 H         3.849406         2.331956         1.120720
 H         3.240623         1.621331        -0.504655
 H         2.343366         2.966073         0.273009
 H         2.136717         1.365637         3.372543
 H        -0.759204        -0.639316        -0.214737
 H        -0.035332         0.872082        -0.603445
 H         0.765035        -0.655961        -1.189411
 H         1.368132        -2.090004         1.873153
 H         2.526640        -1.745820         0.434252
 H         4.702705        -0.332248         2.049204
