19
Iteration:  3626charge 0 multiplicity 1
 C         2.930726         1.779091         0.159077
 C         2.390526         0.746300         1.077202
 C         1.793826         0.845130         2.511475
 O         0.469100         0.459857         2.145282
 C         1.074786        -0.085605         0.872722
 C         0.114303        -0.165828        -0.279814
 C         1.840002        -1.320044         1.533702
 C         2.836240        -0.258186         2.083577
 O         4.106821        -0.729584         2.585995
 H         3.692471         2.262671         0.712409
 H         3.440796         1.259242        -0.659486
 H         2.141003         2.340192        -0.356658
 H         2.005541         1.512828         3.346472
 H        -0.817033        -0.908977        -0.264116
 H        -0.291134         0.811578        -0.431700
 H         0.714442        -0.581474        -1.197917
 H         1.324815        -2.122999         2.112205
 H         2.317446        -1.847097         0.756926
 H         3.865772        -0.968120         3.496535
