19
Iteration:   865charge 0 multiplicity 1
 C         3.035503         2.093724         0.488451
 C         2.215818         0.990149         1.172740
 C         1.844471         0.552790         2.553802
 O         0.402220         0.057527         2.297409
 C         1.091496        -0.092541         0.856421
 C         0.129226        -0.083909        -0.377117
 C         1.985864        -1.408344         1.121507
 C         2.814414        -0.344400         1.947965
 O         3.974603        -0.541244         2.615454
 H         3.833542         2.449656         1.133397
 H         3.398276         1.642870        -0.502032
 H         2.490519         3.046299         0.292575
 H         1.971681         1.075510         3.574120
 H        -0.752782        -0.537716        -0.133142
 H        -0.022824         0.993726        -0.412656
 H         0.613714        -0.283897        -1.347466
 H         1.437068        -2.205139         1.625337
 H         2.484389        -1.612217         0.244930
 H         4.475724        -1.399862         2.471019
