19
Iteration:  3167charge 0 multiplicity 1
 C         2.874868         1.777880         0.136801
 C         2.325572         0.827406         1.070716
 C         1.784721         0.852494         2.521566
 O         0.447695         0.459900         2.178929
 C         1.104237        -0.153099         0.908242
 C         0.245637        -0.067046        -0.257603
 C         1.913049        -1.389362         1.441709
 C         2.819945        -0.319645         2.082187
 O         4.021108        -0.762378         2.609654
 H         3.680797         2.395814         0.354228
 H         3.148531         1.240676        -0.803423
 H         2.039187         2.597625        -0.067262
 H         2.005736         1.529322         3.288591
 H        -0.498078        -0.923876         0.035127
 H        -0.215598         0.908337        -0.464010
 H         0.871387        -0.314075        -1.235478
 H         1.603076        -2.234269         2.076472
 H         2.368979        -1.745239         0.509976
 H         4.046342        -1.030877         3.558120
