19
Iteration:  3923
 C         3.340296         1.696815         0.297962
 C         2.346864         0.689310         1.105663
 C         1.826232         0.807346         2.555529
 O         0.500192         0.466038         2.151427
 C         1.011487        -0.141863         0.921481
 C        -0.073010        -0.116742        -0.148107
 C         1.761044        -1.366665         1.423104
 C         2.671369        -0.349963         1.998756
 O         4.091807        -0.463648         2.395013
 H         3.045468         1.776279        -0.739919
 H         3.409713         2.729545         0.673267
 H         4.415341         1.167778         0.322763
 H         2.105577         1.540462         3.299240
 H        -0.624920        -1.071852         0.055574
 H        -0.767872         0.669115        -0.207356
 H         0.292141        -0.321112        -1.159248
 H         1.057766        -2.092048         2.093904
 H         2.067852        -2.065016         0.623333
 H         4.283302        -1.050335         3.146216
