19
Iteration:  4541
 C         3.200592         1.514583         0.205163
 C         2.288117         0.719026         1.126845
 C         1.788901         0.804890         2.465981
 O         0.512800         0.298620         2.302385
 C         1.054919        -0.125726         0.821979
 C        -0.027031         0.067910        -0.223972
 C         1.794801        -1.378016         1.355624
 C         2.765503        -0.362446         2.156323
 O         4.073482        -0.365231         2.455556
 H         2.945050         1.586447        -0.896488
 H         3.262432         2.561414         0.709705
 H         4.139426         1.073358         0.306045
 H         2.027214         1.582158         3.209350
 H        -1.015001        -0.347963         0.111984
 H        -0.125041         1.175687        -0.455794
 H         0.377638        -0.517316        -1.138232
 H         1.345562        -2.183811         1.978482
 H         2.422794        -1.882392         0.628286
 H         4.215230        -0.931456         3.233868
