19
Iteration:  4545charge 0 multiplicity 1
 C         3.191334         1.521437         0.207303
 C         2.250427         0.765203         1.135373
 C         1.830711         0.801225         2.472287
 O         0.482171         0.311990         2.277088
 C         1.002312        -0.120525         0.869671
 C        -0.007321         0.055591        -0.253163
 C         1.825213        -1.423225         1.372970
 C         2.789196        -0.339922         2.114521
 O         4.091474        -0.386542         2.469557
 H         2.893092         1.616233        -0.795576
 H         3.169378         2.487149         0.594002
 H         4.234564         0.968955         0.217871
 H         2.030373         1.444940         3.329562
 H        -0.892182        -0.343419         0.179053
 H         0.008353         1.182837        -0.477390
 H         0.366200        -0.482973        -1.100205
 H         1.246889        -2.078923         1.963031
 H         2.354484        -1.880035         0.536026
 H         4.193289        -0.905681         3.288818
