19
Iteration:  2315charge 0 multiplicity 1
 C         3.079811         1.941123         0.279305
 C         2.316815         0.825092         1.081320
 C         1.906708         0.731846         2.498324
 O         0.498034         0.412972         2.232904
 C         1.055858        -0.161739         0.854507
 C         0.105803        -0.248308        -0.329741
 C         1.810352        -1.362992         1.436689
 C         2.788975        -0.330236         1.969961
 O         3.982597        -0.670470         2.619700
 H         3.936910         2.337962         0.830227
 H         3.192064         1.708090        -0.797232
 H         2.302497         2.761265         0.230355
 H         2.030336         1.461348         3.293654
 H        -0.543982        -1.092254        -0.204333
 H        -0.376814         0.655343        -0.576602
 H         0.677068        -0.562683        -1.169160
 H         1.306354        -2.043996         2.044171
 H         2.192725        -1.857299         0.598018
 H         4.189598        -0.063438         3.336565
