19
Iteration:  1617charge 0 multiplicity 1
 C         3.092114         1.782802         0.270486
 C         2.266116         0.847619         1.078081
 C         1.823373         0.856388         2.454631
 O         0.541263         0.252089         2.192141
 C         1.012278        -0.111933         0.862696
 C         0.035062        -0.126345        -0.239544
 C         1.957505        -1.370926         1.365963
 C         2.796622        -0.290193         2.065162
 O         3.971701        -0.629286         2.566932
 H         3.907315         2.143417         0.856811
 H         3.484009         1.521269        -0.740831
 H         2.429959         2.646953         0.076444
 H         1.807255         1.250615         3.442393
 H        -0.904273        -0.669936         0.025606
 H        -0.069268         0.937864        -0.525708
 H         0.503502        -0.656137        -1.055776
 H         1.622003        -2.245019         2.003609
 H         2.643471        -1.862447         0.708721
 H         3.937751        -0.157556         3.479332
