19
Iteration:  3991charge 0 multiplicity 1
 C         2.974781         1.734280         0.080936
 C         2.324602         0.773722         1.141571
 C         1.946831         0.811019         2.535492
 O         0.501063         0.467514         2.230769
 C         1.069564        -0.090196         0.891590
 C         0.029364        -0.040790        -0.237272
 C         1.834082        -1.284093         1.421754
 C         2.834016        -0.340647         2.101756
 O         4.043579        -0.797452         2.543641
 H         3.105762         1.112646        -0.849663
 H         2.278174         2.541056        -0.248658
 H         4.043363         2.144664         0.257475
 H         2.004901         1.504387         3.359698
 H        -0.835119        -0.611318         0.088081
 H        -0.085810         1.002519        -0.532418
 H         0.469158        -0.454898        -1.083385
 H         1.281004        -2.113869         2.074018
 H         2.226633        -1.900303         0.503094
 H         4.011333        -0.778674         3.525292
