19
Iteration:  4614charge 0 multiplicity 1
 C         2.981979         1.888354         0.187810
 C         2.384520         0.716066         1.010999
 C         1.890759         0.846082         2.430555
 O         0.508559         0.485485         2.195524
 C         1.053497        -0.112409         0.953979
 C         0.080181        -0.150578        -0.261657
 C         1.849966        -1.342757         1.459491
 C         2.821481        -0.352912         2.068564
 O         4.044689        -0.766029         2.605706
 H         2.185694         1.979899        -0.595454
 H         2.825992         2.759304         0.840871
 H         3.978586         1.697499        -0.311060
 H         2.139523         1.599076         3.203144
 H        -0.811761        -0.838357        -0.207868
 H        -0.488806         0.740182        -0.406591
 H         0.519933        -0.421099        -1.214637
 H         1.311322        -1.938817         2.283903
 H         2.339100        -1.947525         0.622319
 H         3.777641        -1.116588         3.478981
