19
Iteration:  1153
 C         2.878377         1.927817         0.417827
 C         2.385551         0.827086         1.240322
 C         1.773278         0.646683         2.565845
 O         0.482838         0.276234         2.053289
 C         1.105704        -0.084622         0.845245
 C         0.090294        -0.048814        -0.253649
 C         1.954027        -1.364061         1.190817
 C         2.848406        -0.412392         2.033718
 O         4.051093        -0.612419         2.588015
 H         3.685673         2.510584         0.932897
 H         3.172069         1.614879        -0.640374
 H         2.133911         2.656242         0.208943
 H         1.841485         1.050018         3.596290
 H        -0.478945        -0.973534        -0.317630
 H        -0.570497         0.774500        -0.067716
 H         0.544817         0.092189        -1.185675
 H         1.615359        -2.244477         1.682790
 H         2.473971        -1.576081         0.206730
 H         3.984702        -0.505737         3.547297
