19
Iteration:   225
 C         3.066458         2.197438         0.716233
 C         2.329397         0.841203         1.100023
 C         1.847286         0.574577         2.495353
 O         0.483953         0.165506         2.152919
 C         1.004690        -0.108401         0.886748
 C        -0.052506        -0.154042        -0.300061
 C         1.996438        -1.326019         1.055227
 C         2.801764        -0.384597         1.881830
 O         4.027218        -0.590234         2.671366
 H         3.816006         2.377872         1.520945
 H         3.578862         2.088346        -0.197399
 H         2.328028         3.021557         0.608447
 H         2.192317         1.136634         3.283798
 H        -0.747817        -0.949950        -0.084894
 H        -0.784610         0.707946        -0.253588
 H         0.452261        -0.288227        -1.324020
 H         1.445015        -2.052427         1.732509
 H         2.390981        -1.839705         0.142729
 H         4.594569        -1.167089         2.070588
