19
Iteration:  4601
 C         2.882173         1.753866         0.206533
 C         2.380079         0.776990         1.125092
 C         1.907085         0.848059         2.506899
 O         0.595138         0.455402         2.212639
 C         1.040665        -0.098284         0.874655
 C         0.074014        -0.162690        -0.297201
 C         1.785096        -1.306790         1.411559
 C         2.798233        -0.343270         2.106576
 O         4.034377        -0.719894         2.557153
 H         2.353483         1.919214        -0.705660
 H         3.063720         2.716065         0.590597
 H         4.030470         1.497953        -0.086332
 H         2.053851         1.756585         3.108226
 H        -0.704012        -0.871032         0.042175
 H        -0.128651         0.935769        -0.626009
 H         0.682348        -0.579294        -1.066684
 H         1.137931        -2.033825         1.871306
 H         2.321179        -1.826504         0.555361
 H         4.080372        -0.970607         3.504281
