19
Iteration:  3313charge 0 multiplicity 1
 C         3.161856         1.553690         0.239553
 C         2.258414         0.811495         1.107114
 C         1.825734         0.753036         2.547643
 O         0.438512         0.365497         2.220363
 C         1.050725        -0.134231         0.960693
 C         0.105829        -0.153049        -0.291961
 C         1.879736        -1.344775         1.303527
 C         2.706901        -0.343123         2.078272
 O         4.015910        -0.325599         2.552768
 H         4.227502         1.528544         0.637185
 H         3.234520         1.229744        -0.841174
 H         3.045392         2.642366         0.330904
 H         2.127760         1.374710         3.460439
 H        -0.990808        -0.389066        -0.027161
 H         0.138956         0.965841        -0.754601
 H         0.403314        -0.829762        -1.118591
 H         1.523565        -2.289849         1.718080
 H         2.367817        -1.637709         0.366244
 H         4.139995        -1.011378         3.235077
