19
Iteration:  4796
 C         3.033311         1.812688         0.190835
 C         2.357337         0.737129         1.005100
 C         1.848269         0.864029         2.468239
 O         0.536977         0.390967         2.218919
 C         1.101187        -0.087333         0.840897
 C         0.034517        -0.248177        -0.281447
 C         1.811330        -1.257839         1.417152
 C         2.728865        -0.285919         2.127238
 O         4.079337        -0.680187         2.643153
 H         3.941519         2.210948         0.455035
 H         3.246900         1.376521        -0.744951
 H         2.261405         2.629261         0.010112
 H         2.006399         1.645473         3.215081
 H        -0.528933        -0.960559         0.161694
 H        -0.598805         0.569796        -0.711193
 H         0.535415        -0.766160        -0.985652
 H         1.208606        -2.003889         2.024702
 H         2.451205        -1.818022         0.659170
 H         4.010844        -0.741272         3.617698
