19
Iteration:  4009charge 0 multiplicity 1
 C         2.905680         1.685825        -0.005951
 C         2.375572         0.771399         1.122348
 C         1.832595         0.840056         2.529379
 O         0.528630         0.466368         2.220287
 C         1.022308        -0.036055         1.011576
 C         0.049880         0.060634        -0.219357
 C         1.851578        -1.358934         1.320376
 C         2.814000        -0.424092         1.995167
 O         4.128364        -0.781050         2.660152
 H         3.533044         1.197672        -0.706683
 H         2.084939         2.233487        -0.415810
 H         3.646135         2.403068         0.507330
 H         2.263209         1.299646         3.444056
 H        -0.910306        -0.395704         0.269388
 H        -0.052806         1.058274        -0.690189
 H         0.452672        -0.641581        -1.123500
 H         1.417138        -1.973009         2.126449
 H         2.337857        -1.917739         0.559552
 H         3.870064        -0.768559         3.612079
