19
Iteration:  3645charge 0 multiplicity 1
 C         3.043931         1.672775         0.120630
 C         2.299320         0.881967         1.174418
 C         1.840224         0.844023         2.523615
 O         0.435106         0.419367         2.216494
 C         1.085854        -0.116423         0.946396
 C         0.141774        -0.132184        -0.299704
 C         1.840266        -1.315529         1.378245
 C         2.766030        -0.387377         2.089854
 O         4.076947        -0.616889         2.546539
 H         3.571876         2.643077         0.592302
 H         3.796911         1.097683        -0.479947
 H         2.324460         2.059660        -0.606435
 H         1.856827         1.524318         3.312215
 H        -0.729796        -0.673665        -0.034952
 H        -0.167205         0.800831        -0.696618
 H         0.602238        -0.816055        -1.069450
 H         1.318780        -1.991456         2.124965
 H         2.265595        -2.086764         0.656414
 H         4.127442        -0.830477         3.503894
