19
Iteration:  1432
 C         3.097590         1.886272         0.332357
 C         2.329555         0.791348         1.212852
 C         1.743189         0.767044         2.484978
 O         0.448597         0.208467         2.175385
 C         1.031412        -0.104494         0.831135
 C         0.036127        -0.115976        -0.239757
 C         1.981346        -1.371592         1.291374
 C         2.832558        -0.309259         2.012366
 O         4.034085        -0.525759         2.617852
 H         3.956684         2.328408         0.808859
 H         3.313127         1.558417        -0.649468
 H         2.410879         2.800139         0.108204
 H         1.831144         1.650311         3.209246
 H        -0.915613        -0.311425         0.250573
 H        -0.011671         0.852212        -0.764442
 H         0.329583        -0.923018        -0.908269
 H         1.409880        -2.186323         1.849093
 H         2.511081        -1.792827         0.457075
 H         4.188605        -1.492620         2.559175
