19
Iteration:  3841charge 0 multiplicity 1
 C         3.023830         1.688714         0.105367
 C         2.369730         0.743783         1.078929
 C         1.894317         0.770776         2.533710
 O         0.500689         0.428395         2.195178
 C         1.074059        -0.106142         0.922662
 C         0.106126         0.001155        -0.179114
 C         1.821382        -1.410649         1.433300
 C         2.770228        -0.447622         2.034800
 O         4.013289        -0.544276         2.580205
 H         2.191181         1.887528        -0.654504
 H         3.197492         2.708661         0.484807
 H         3.855147         1.397464        -0.423634
 H         2.296847         1.536795         3.310601
 H        -0.914934        -0.294032         0.152645
 H         0.141924         1.164668        -0.450813
 H         0.562320        -0.610413        -1.090629
 H         1.159132        -2.052730         1.903472
 H         2.167590        -1.879227         0.465846
 H         3.776152        -0.958037         3.453851
