19
Iteration:  3619charge 0 multiplicity 1
 C         2.915035         1.798677         0.155029
 C         2.415885         0.745452         1.070374
 C         1.881690         0.832095         2.433780
 O         0.455111         0.482342         2.113947
 C         1.124333        -0.172424         0.945838
 C         0.098589        -0.162041        -0.240291
 C         1.832439        -1.302128         1.515069
 C         2.795908        -0.340766         2.105369
 O         4.036724        -0.697279         2.585821
 H         3.722579         2.354565         0.695095
 H         3.359590         1.411142        -0.773782
 H         2.159932         2.638473        -0.048633
 H         1.890920         1.665024         3.206345
 H        -0.623725        -0.991386        -0.225610
 H        -0.338115         0.847001        -0.541321
 H         0.768875        -0.328377        -1.033310
 H         1.465571        -2.072253         2.190979
 H         2.394669        -1.883661         0.719935
 H         3.933900        -1.060391         3.500704
