19
Iteration:  4306
 C         3.291249         1.600473         0.314932
 C         2.373739         0.703614         1.073439
 C         1.911401         0.821685         2.499921
 O         0.521955         0.464908         2.234435
 C         0.872158        -0.037327         0.922171
 C        -0.162846        -0.119129        -0.195587
 C         1.720103        -1.318849         1.338373
 C         2.803873        -0.396641         2.010026
 O         4.149477        -0.502538         2.431445
 H         4.240932         1.226993         0.713539
 H         3.436293         1.706833        -0.732311
 H         3.118545         2.747979         0.648457
 H         2.073799         1.400805         3.412054
 H        -0.851819        -1.032134         0.024187
 H        -0.936899         0.743267        -0.109206
 H         0.314285        -0.282805        -1.152826
 H         1.278819        -1.951799         2.178374
 H         2.102084        -1.833713         0.422690
 H         4.136448        -1.231441         3.084244
