19
Iteration:  4898charge 0 multiplicity 1
 C         3.119543         1.552239         0.132235
 C         2.292899         0.819664         1.110048
 C         1.741402         0.705464         2.533218
 O         0.348130         0.444476         2.133732
 C         0.982630        -0.196709         1.000371
 C         0.175500        -0.097921        -0.225831
 C         1.967677        -1.426584         1.408863
 C         2.770300        -0.273723         2.034690
 O         4.063201        -0.378293         2.576957
 H         3.807355         0.834464        -0.400246
 H         2.559459         2.226370        -0.474500
 H         3.795309         2.271147         0.550059
 H         1.778750         1.399821         3.377955
 H        -0.848569        -0.630919        -0.166012
 H        -0.003758         0.924276        -0.281475
 H         0.713205        -0.391334        -1.214776
 H         1.642874        -2.167991         2.116551
 H         2.611356        -1.658221         0.518534
 H         4.122063        -0.919106         3.390528
