19
Iteration:  1217
 C         3.018237         1.997699         0.426038
 C         2.317669         0.842900         1.173472
 C         1.719300         0.664576         2.591709
 O         0.389381         0.287000         2.245024
 C         1.083589        -0.097746         0.886862
 C         0.192600        -0.145889        -0.319337
 C         1.904517        -1.415100         1.219549
 C         2.777237        -0.404467         1.940595
 O         4.086230        -0.600490         2.517579
 H         3.808288         2.174767         1.193866
 H         3.545313         1.821529        -0.518182
 H         2.357547         2.782722         0.458516
 H         1.837272         1.191324         3.569638
 H        -0.744909        -0.705658        -0.107331
 H         0.080077         0.774807        -0.921067
 H         0.678462        -0.847559        -1.011614
 H         1.352121        -2.121520         1.817405
 H         2.254812        -1.686526         0.223658
 H         4.427263         0.246958         2.777905
