19
Iteration:  3563
 C         3.083070         1.768786         0.207610
 C         2.403195         0.776851         1.041496
 C         1.835528         0.797207         2.511017
 O         0.459898         0.423771         2.167848
 C         1.070606        -0.073085         0.873275
 C         0.035322        -0.215578        -0.260964
 C         1.792820        -1.419939         1.430400
 C         2.804049        -0.347321         2.024956
 O         4.080135        -0.529571         2.646123
 H         4.159027         1.699035         0.208014
 H         2.815968         1.592964        -0.865333
 H         2.792486         2.887748         0.420523
 H         1.919982         1.414020         3.424569
 H        -0.580722        -1.183467        -0.163166
 H        -0.636147         0.628089        -0.402239
 H         0.599714        -0.384130        -1.187948
 H         1.273904        -2.057050         2.172969
 H         2.277015        -1.825805         0.566104
 H         3.816097        -0.589677         3.579438
