19
Iteration:  2757charge 0 multiplicity 1
 C         2.842916         1.753488         0.107198
 C         2.427173         0.749098         1.136386
 C         1.846192         0.694543         2.560094
 O         0.514601         0.416895         2.209994
 C         1.097512        -0.139247         0.908017
 C         0.237407         0.023784        -0.239287
 C         1.803091        -1.405171         1.274268
 C         2.767972        -0.434041         2.010553
 O         4.043200        -0.532229         2.649164
 H         3.765994         2.265402         0.500559
 H         2.998456         1.368676        -0.878781
 H         2.100318         2.473020         0.180640
 H         2.010473         1.275172         3.544575
 H        -0.676582        -0.388513         0.049547
 H         0.149253         1.084037        -0.344024
 H         0.501852        -0.357016        -1.204675
 H         1.267805        -2.137950         2.044300
 H         2.264031        -2.028990         0.420228
 H         3.801393        -0.690920         3.564102
