19
Iteration:  3896
 C         3.317565         1.573972         0.279016
 C         2.279708         0.783693         1.051055
 C         1.755162         0.864608         2.496814
 O         0.477538         0.421472         2.228359
 C         1.001927        -0.125973         0.889318
 C        -0.079681        -0.086176        -0.116329
 C         1.899627        -1.324011         1.369898
 C         2.720522        -0.295783         2.062862
 O         4.076243        -0.580585         2.426426
 H         2.993561         1.638289        -0.803344
 H         3.462293         2.579894         0.692652
 H         4.196850         1.070411         0.174454
 H         2.075648         1.463442         3.394009
 H        -0.775118        -0.896118         0.222177
 H        -0.565244         0.940003        -0.383825
 H         0.397561        -0.432257        -1.150860
 H         1.407469        -2.106341         1.849238
 H         2.492937        -1.583407         0.484226
 H         4.079366        -0.878188         3.360099
