19
Iteration:  3695
 C         3.248796         1.560299         0.282015
 C         2.288827         0.715794         1.067041
 C         1.742375         0.790629         2.513802
 O         0.459632         0.358185         2.162016
 C         1.025179        -0.144069         0.949111
 C        -0.051662         0.004933        -0.262989
 C         1.852479        -1.416965         1.381788
 C         2.772402        -0.375789         2.025173
 O         4.156490        -0.316677         2.551197
 H         3.546980         2.510864         0.539083
 H         4.160705         1.023998         0.072131
 H         2.842104         1.446729        -0.763168
 H         1.856545         1.486143         3.364142
 H        -1.064178        -0.392342         0.251973
 H        -0.371616         1.155055        -0.376098
 H         0.103806        -0.626985        -1.128155
 H         1.281556        -2.213594         1.789765
 H         2.513603        -1.916294         0.706408
 H         4.102068        -0.817854         3.369167
