19
Iteration:  4848
 C         2.977802         1.857916         0.183128
 C         2.363374         0.739345         1.047202
 C         1.902858         0.811814         2.434146
 O         0.493922         0.466487         2.122130
 C         1.082848        -0.124824         0.925033
 C         0.062391        -0.254657        -0.297552
 C         1.842454        -1.368161         1.492442
 C         2.784647        -0.412729         2.065158
 O         4.038834        -0.592600         2.668297
 H         4.052362         1.634571        -0.030675
 H         2.547493         2.047274        -0.878754
 H         3.013958         2.850508         0.678716
 H         2.136710         1.442556         3.294838
 H        -0.580530        -1.147088        -0.205862
 H        -0.642518         0.654598        -0.348753
 H         0.688695        -0.364764        -1.164578
 H         1.153430        -1.879767         2.231589
 H         2.289126        -1.888018         0.664409
 H         3.991986        -0.390346         3.626345
