19
Iteration:  1510charge 0 multiplicity 1
 C         2.961157         1.834834         0.291028
 C         2.323070         0.782432         1.157747
 C         1.804910         0.735474         2.542472
 O         0.474812         0.358570         2.164134
 C         1.051908        -0.076554         0.840418
 C         0.114777        -0.097069        -0.309193
 C         1.963688        -1.458765         1.359778
 C         2.789232        -0.351838         2.091450
 O         4.048517        -0.552173         2.526695
 H         3.754334         2.474075         0.808538
 H         3.438084         1.375132        -0.541390
 H         2.213823         2.691663        -0.054302
 H         2.071078         1.397775         3.331544
 H        -0.676387        -0.841131        -0.008057
 H        -0.441926         0.835227        -0.391406
 H         0.660569        -0.259355        -1.218206
 H         1.379429        -2.148925         2.035963
 H         2.436655        -2.031235         0.518831
 H         4.055644        -0.890058         3.487437
