19
Iteration:  2744charge 0 multiplicity 1
 C         2.915639         1.754260         0.245858
 C         2.304163         0.764581         1.115436
 C         1.874745         0.733968         2.517013
 O         0.486453         0.359681         2.168422
 C         1.082081        -0.080817         0.918682
 C         0.130744         0.046492        -0.284078
 C         1.893484        -1.462201         1.415718
 C         2.841472        -0.407226         1.981480
 O         4.043892        -0.568776         2.618937
 H         4.016608         2.160863         0.430887
 H         2.945422         1.331214        -0.727435
 H         2.240707         2.609568        -0.065394
 H         2.239737         1.367640         3.392993
 H        -0.840934        -0.443380        -0.149401
 H        -0.158778         1.067060        -0.544109
 H         0.691960        -0.471826        -1.125846
 H         1.184028        -2.089413         1.985479
 H         2.147935        -1.872689         0.395524
 H         3.913047        -0.578099         3.601722
