19
Iteration:   850
 C         3.012988         2.112328         0.540189
 C         2.237349         0.938027         1.112537
 C         1.757628         0.658340         2.551992
 O         0.515638         0.061328         2.195742
 C         1.027187        -0.128495         0.869696
 C         0.142001        -0.058709        -0.260298
 C         1.968637        -1.304681         1.101838
 C         2.811546        -0.366208         1.864802
 O         4.000512        -0.599568         2.694462
 H         3.842850         2.156241         1.266045
 H         3.525641         1.972964        -0.376679
 H         2.398234         3.113587         0.384550
 H         2.050050         1.091397         3.449775
 H        -0.732265        -0.798416         0.006148
 H        -0.270155         0.856332        -0.726491
 H         0.553642        -0.697254        -1.038215
 H         1.554359        -2.144378         1.691565
 H         2.401425        -1.803138         0.169390
 H         4.294028        -1.418231         2.277227
