19
Iteration:   130charge 0 multiplicity 1
 C         2.761656         1.922403         0.450875
 C         2.308851         0.791321         1.301914
 C         1.715500         0.515139         2.670965
 O         0.408081         0.168974         2.233125
 C         1.061308        -0.086981         0.918515
 C         0.358205         0.181890        -0.335630
 C         1.979494        -1.365632         1.118966
 C         2.804122        -0.447200         2.002872
 O         4.090231        -0.597879         2.425426
 H         3.647248         2.426175         0.944459
 H         3.117108         1.616430        -0.622538
 H         1.985352         2.623772         0.381165
 H         1.763743         0.835014         3.665123
 H        -0.517861        -0.437303        -0.315643
 H         0.010725         1.221865        -0.461598
 H         1.060396        -0.086797        -1.173818
 H         1.553947        -2.198507         1.664204
 H         2.414307        -1.654581         0.122012
 H         4.487089         0.294968         2.433599
