19
Iteration:  3444charge 0 multiplicity 1
 C         3.041145         1.757661         0.216190
 C         2.301460         0.752670         1.053796
 C         1.769557         0.902308         2.476225
 O         0.457461         0.393659         2.117591
 C         1.060198        -0.126316         0.884720
 C         0.032408        -0.139424        -0.234979
 C         1.885494        -1.371331         1.429438
 C         2.846134        -0.338191         2.112641
 O         4.117950        -0.661954         2.602425
 H         3.517634         2.527061         0.784452
 H         3.851971         1.410863        -0.451251
 H         2.388533         2.293954        -0.468244
 H         1.837553         1.642765         3.218507
 H        -0.795766        -0.799256        -0.044239
 H        -0.299605         0.916060        -0.314334
 H         0.518808        -0.373559        -1.136925
 H         1.389982        -1.957876         2.216321
 H         2.440861        -1.766382         0.576687
 H         4.076699        -0.925449         3.549712
