19
Iteration:  3220charge 0 multiplicity 1
 C         3.058034         1.799647         0.255336
 C         2.352799         0.766915         1.012492
 C         1.910899         0.753069         2.447442
 O         0.511663         0.472787         2.181151
 C         0.999037        -0.106836         0.889168
 C         0.026383        -0.181023        -0.236379
 C         1.867265        -1.411466         1.392833
 C         2.803430        -0.384702         1.979673
 O         4.019467        -0.559766         2.671440
 H         3.382979         2.536160         1.015645
 H         3.873037         1.580888        -0.412248
 H         2.275481         2.516222        -0.174050
 H         2.156725         1.439777         3.209645
 H        -0.589969        -1.135708        -0.230813
 H        -0.485074         0.754330        -0.298720
 H         0.756496        -0.245121        -1.142813
 H         1.232272        -2.084688         2.101524
 H         2.136991        -2.079700         0.488246
 H         3.920033        -0.787705         3.622857
