19
Iteration:  1559
 C         2.975965         1.794005         0.301373
 C         2.343352         0.804590         1.143084
 C         1.860799         0.749095         2.563031
 O         0.473730         0.393766         2.246757
 C         1.036925        -0.128761         0.817918
 C         0.145055        -0.185361        -0.342667
 C         1.901017        -1.379291         1.358805
 C         2.765865        -0.331970         2.041321
 O         3.981409        -0.555289         2.631689
 H         3.916716         2.179458         0.637260
 H         3.233409         1.258300        -0.683644
 H         2.389537         2.622618         0.160444
 H         1.926965         1.599559         3.388216
 H        -0.505659        -1.050897        -0.359789
 H        -0.547377         0.696279        -0.201757
 H         0.814228         0.074984        -1.225522
 H         1.355108        -2.181392         1.878901
 H         2.518061        -1.806888         0.518279
 H         4.631586        -0.747460         1.960840
