19
Iteration:  4119
 C         3.302889         1.558335         0.316409
 C         2.333018         0.806383         1.125648
 C         1.846884         0.841966         2.538660
 O         0.505102         0.527684         2.297971
 C         0.901714         0.007039         0.982226
 C        -0.039198        -0.247363        -0.176537
 C         1.717599        -1.339233         1.348886
 C         2.798230        -0.317847         2.021082
 O         4.109730        -0.616137         2.273325
 H         4.201017         1.546864         0.923077
 H         3.530821         1.359444        -0.703059
 H         3.028050         2.717588         0.396793
 H         2.279593         1.320517         3.409835
 H        -0.851982        -1.106436        -0.202202
 H        -0.662662         0.713073        -0.354412
 H         0.511939        -0.319795        -1.229661
 H         1.012613        -1.949388         1.791644
 H         2.123471        -1.711611         0.459209
 H         4.024867        -0.930342         3.198346
