19
Iteration:  4972charge 0 multiplicity 1
 C         3.117314         1.725341         0.294430
 C         2.343781         0.732247         1.056769
 C         1.722594         0.835693         2.447234
 O         0.410341         0.433804         2.056940
 C         0.980812        -0.175858         0.920833
 C         0.037222        -0.220393        -0.213908
 C         2.001212        -1.411183         1.512874
 C         2.860463        -0.315142         1.957740
 O         4.030682        -0.461046         2.618364
 H         2.746679         1.733043        -0.722457
 H         3.264545         2.700283         0.690977
 H         4.164565         1.283822         0.119185
 H         1.933108         1.663567         3.147818
 H        -0.770727        -0.841260        -0.027109
 H        -0.278142         0.785879        -0.442567
 H         0.609252        -0.571748        -1.062208
 H         1.522217        -2.031358         2.298678
 H         2.427465        -1.948275         0.600274
 H         3.927541        -0.454376         3.585705
