19
Iteration:  1684
 C         3.005217         1.767522         0.318854
 C         2.361281         0.733595         1.139102
 C         1.793173         0.721334         2.583884
 O         0.436403         0.472027         2.185695
 C         1.098749        -0.128054         0.876436
 C         0.167936        -0.193595        -0.299433
 C         1.836727        -1.372881         1.349338
 C         2.697655        -0.399451         2.029698
 O         4.113402        -0.426842         2.520227
 H         3.759067         2.382717         0.870501
 H         3.458632         1.395275        -0.560812
 H         2.168351         2.455942         0.011788
 H         2.124750         1.333129         3.381429
 H        -0.787103        -0.676923         0.137328
 H        -0.079513         0.832766        -0.517542
 H         0.475728        -0.730852        -1.210861
 H         1.203235        -2.169536         1.796257
 H         2.402018        -1.906958         0.586922
 H         4.317920        -1.242378         2.946239
