19
Iteration:  4440charge 0 multiplicity 1
 C         2.935643         1.820212         0.191578
 C         2.431144         0.722222         1.099907
 C         1.882659         0.803380         2.486605
 O         0.496122         0.543922         2.149643
 C         0.983201        -0.058435         0.951103
 C         0.041589        -0.101427        -0.254027
 C         1.874007        -1.325230         1.524027
 C         2.888014        -0.394224         2.000731
 O         4.077295        -0.802735         2.533527
 H         3.612447         1.285682        -0.532531
 H         2.102432         2.364425        -0.392713
 H         3.450926         2.576215         0.777957
 H         2.164497         1.531390         3.236980
 H        -0.924852        -0.754298        -0.065102
 H        -0.350613         0.924220        -0.294568
 H         0.625315        -0.382903        -1.178276
 H         1.250930        -1.927202         2.253618
 H         2.018078        -1.922283         0.595587
 H         3.819211        -1.224562         3.377078
