19
Iteration:  2314
 C         3.091934         1.936421         0.281870
 C         2.309038         0.841934         1.071635
 C         1.903364         0.721725         2.496324
 O         0.502189         0.408194         2.228761
 C         1.064268        -0.157834         0.861281
 C         0.099173        -0.245750        -0.328431
 C         1.809097        -1.363178         1.437280
 C         2.776398        -0.336470         1.969965
 O         3.987098        -0.667798         2.621427
 H         3.912617         2.315929         0.834159
 H         3.199794         1.702900        -0.774404
 H         2.277821         2.799087         0.226868
 H         2.038845         1.498694         3.273713
 H        -0.558848        -1.068947        -0.198643
 H        -0.388548         0.629354        -0.587736
 H         0.689960        -0.566075        -1.149201
 H         1.327083        -2.085540         2.053011
 H         2.207350        -1.851735         0.630391
 H         4.194966        -0.060476         3.321109
