19
Iteration:  2021charge 0 multiplicity 1
 C         3.082166         1.760225         0.309283
 C         2.317544         0.824353         1.209222
 C         1.653532         0.795121         2.543088
 O         0.410087         0.369094         2.152688
 C         1.034234        -0.061591         0.945846
 C         0.139924        -0.127332        -0.289713
 C         1.916027        -1.443010         1.328488
 C         2.790461        -0.430829         2.038817
 O         4.139785        -0.432047         2.510897
 H         4.030209         2.050431         0.734129
 H         3.398447         1.144190        -0.645903
 H         2.495759         2.499989        -0.121384
 H         1.811485         1.348093         3.535432
 H        -0.680184        -0.894873        -0.180107
 H        -0.344492         0.814237        -0.463501
 H         0.692086        -0.517729        -1.164224
 H         1.211179        -2.184392         1.840019
 H         2.401763        -1.937177         0.471271
 H         4.345687        -1.178867         3.069017
