19
Iteration:  4461charge 0 multiplicity 1
 C         3.082397         1.822605         0.208531
 C         2.347589         0.759225         1.039792
 C         1.889965         0.864817         2.479673
 O         0.555108         0.533872         2.245685
 C         1.066705        -0.057814         0.961498
 C         0.133923        -0.209987        -0.127086
 C         1.747410        -1.402292         1.332377
 C         2.758385        -0.349109         2.084505
 O         3.968864        -0.725507         2.458038
 H         3.377373         1.310481        -0.761320
 H         2.475570         2.715876        -0.154977
 H         3.974825         2.291644         0.704753
 H         2.084984         1.412301         3.392878
 H        -0.633802        -1.066324         0.017579
 H        -0.515306         0.633341        -0.308504
 H         0.624409        -0.394543        -1.098253
 H         1.009731        -2.112678         1.955305
 H         2.368261        -1.975170         0.543010
 H         3.904928        -0.945241         3.407168
