19
Iteration:  1953charge 0 multiplicity 1
 C         2.922273         1.915515         0.248340
 C         2.370959         0.810519         1.101566
 C         1.898553         0.617242         2.521473
 O         0.471532         0.385998         2.202192
 C         1.026993        -0.058665         0.916847
 C         0.166119        -0.165352        -0.303627
 C         1.876126        -1.354350         1.348446
 C         2.839353        -0.484875         2.020916
 O         4.004243        -0.538588         2.635696
 H         3.873176         2.233847         0.592743
 H         3.301146         1.340051        -0.682684
 H         2.304210         2.699641        -0.136922
 H         2.037501         1.404776         3.327749
 H        -0.436821        -1.099140        -0.325364
 H        -0.563982         0.682877        -0.323365
 H         0.801260        -0.174258        -1.215809
 H         1.268396        -2.142626         1.918338
 H         2.227306        -1.701437         0.372567
 H         3.742050        -0.237249         3.534160
