19
Iteration:  4573charge 0 multiplicity 1
 C         3.104692         1.646594         0.089688
 C         2.384110         0.797798         1.185324
 C         1.764128         0.675509         2.574070
 O         0.424872         0.474647         2.243524
 C         0.997905        -0.082032         0.987653
 C         0.141379        -0.062629        -0.203551
 C         1.852003        -1.367953         1.372763
 C         2.811377        -0.382962         2.001335
 O         4.027242        -0.535887         2.456960
 H         2.540297         1.775904        -0.917091
 H         3.158431         2.768264         0.445535
 H         4.048633         1.251971        -0.116832
 H         1.946564         1.290148         3.463610
 H        -0.832927        -0.499642         0.128801
 H         0.264892         0.936056        -0.622968
 H         0.693531        -0.746801        -0.940473
 H         1.344438        -2.181055         2.142869
 H         2.233353        -1.757505         0.400478
 H         4.066224        -0.617045         3.431593
