19
Iteration:  2645
 C         3.270389         1.702303         0.374990
 C         2.357060         0.794408         1.042474
 C         1.791423         0.799819         2.546529
 O         0.489317         0.345539         2.182490
 C         1.051739        -0.134167         0.888266
 C        -0.056378        -0.173384        -0.152682
 C         1.851196        -1.348004         1.327803
 C         2.757284        -0.288711         1.975050
 O         3.995657        -0.473776         2.465313
 H         3.959862         1.931748         1.230022
 H         3.890075         1.343020        -0.382469
 H         2.844251         2.618174        -0.038101
 H         1.859697         1.425728         3.388930
 H        -0.750634        -0.995392         0.003143
 H        -0.536720         0.797074        -0.305218
 H         0.457167        -0.403270        -1.122881
 H         1.266840        -2.191989         1.911614
 H         2.540411        -1.639491         0.434091
 H         3.802702        -1.126382         3.190426
