19
Iteration:  4236charge 0 multiplicity 1
 C         2.898818         1.732148         0.089461
 C         2.380840         0.769381         1.082795
 C         1.907056         0.825243         2.559042
 O         0.582784         0.465242         2.343416
 C         1.043440        -0.058075         0.939132
 C         0.100749         0.031214        -0.245242
 C         1.738309        -1.337211         1.333921
 C         2.786656        -0.361479         2.080320
 O         4.095529        -0.854673         2.507460
 H         3.417802         2.536421         0.589756
 H         3.680838         1.295846        -0.544369
 H         2.170203         2.097245        -0.556497
 H         2.238192         1.400096         3.460547
 H        -0.778595        -0.384038         0.048958
 H        -0.196500         0.950262        -0.521795
 H         0.342418        -0.546356        -1.126869
 H         0.948356        -2.018472         1.840208
 H         2.157847        -1.706216         0.386183
 H         4.272276        -0.686134         3.452322
