19
Iteration:  4772
 C         3.102351         1.730329         0.162509
 C         2.348813         0.824459         1.069287
 C         1.786221         0.802114         2.487262
 O         0.483794         0.427831         2.124231
 C         1.049619        -0.201027         0.977281
 C         0.048652        -0.153032        -0.203344
 C         1.882197        -1.423407         1.448597
 C         2.755596        -0.308977         1.981955
 O         4.059582        -0.514062         2.589209
 H         3.695462         2.456902         0.739016
 H         3.893151         1.230965        -0.470066
 H         2.433818         2.330622        -0.457138
 H         1.840755         1.323673         3.449563
 H        -0.888766        -0.514483         0.072596
 H        -0.041631         0.927690        -0.394753
 H         0.424648        -0.610266        -1.074501
 H         1.511466        -2.139807         2.293459
 H         2.233844        -2.015205         0.594752
 H         3.890910        -0.922861         3.454713
