19
Iteration:  2634charge 0 multiplicity 1
 C         3.220124         1.726434         0.345920
 C         2.276365         0.787282         1.072284
 C         1.815276         0.760181         2.475737
 O         0.490033         0.320452         2.172588
 C         1.021200        -0.127397         0.856180
 C         0.035145        -0.114178        -0.201459
 C         1.910718        -1.305958         1.360178
 C         2.695649        -0.277965         2.031046
 O         4.018138        -0.531408         2.486638
 H         3.976015         2.120675         1.071981
 H         3.701946         1.133156        -0.340641
 H         2.711528         2.631079        -0.024814
 H         2.183412         1.368771         3.222098
 H        -0.751254        -0.729285         0.250559
 H        -0.461342         0.857861        -0.056556
 H         0.197773        -0.380568        -1.250225
 H         1.429893        -2.190650         2.013333
 H         2.560812        -1.946033         0.619058
 H         3.991427        -0.938308         3.368703
