19
Iteration:  2516charge 0 multiplicity 1
 C         3.030351         1.850253         0.335475
 C         2.459375         0.729482         1.128702
 C         1.834278         0.773701         2.511321
 O         0.492028         0.481879         2.109107
 C         1.056893        -0.151036         0.881642
 C         0.039275        -0.209476        -0.224259
 C         1.821503        -1.359936         1.350683
 C         2.772592        -0.380459         2.015295
 O         4.001688        -0.556575         2.561641
 H         4.134275         2.224528         0.715413
 H         3.216811         1.300306        -0.719081
 H         2.425777         2.746205         0.356596
 H         1.990776         1.389103         3.377806
 H        -0.768392        -0.909984        -0.169874
 H        -0.473875         0.755748        -0.266993
 H         0.568889        -0.276847        -1.205388
 H         1.418404        -2.048980         2.129713
 H         2.601491        -1.791133         0.619303
 H         4.181374        -1.291144         3.150403
