19
Iteration:  4360charge 0 multiplicity 1
 C         3.165266         1.564370         0.166170
 C         2.307142         0.820871         1.148366
 C         1.856417         0.750918         2.550511
 O         0.515610         0.386139         2.286374
 C         0.928858        -0.072629         0.838615
 C        -0.050758         0.000723        -0.201364
 C         1.798123        -1.265906         1.305678
 C         2.769626        -0.317321         2.108118
 O         4.159153        -0.640106         2.488822
 H         4.115757         1.089152         0.016609
 H         2.673899         1.509256        -0.760397
 H         3.538886         2.658197         0.350118
 H         2.097361         1.520104         3.288212
 H        -0.880639        -0.573420         0.141597
 H        -0.339686         1.021843        -0.527918
 H         0.243231        -0.512964        -1.064159
 H         1.261041        -2.133168         1.901937
 H         2.423996        -1.756592         0.502038
 H         4.142866        -0.601769         3.468132
