19
Iteration:  2037charge 0 multiplicity 1
 C         3.142967         1.701587         0.318950
 C         2.306285         0.796403         1.215534
 C         1.850942         0.725235         2.584927
 O         0.423904         0.300949         2.219596
 C         1.045398        -0.144797         0.893493
 C         0.123159        -0.182019        -0.308818
 C         1.820182        -1.316151         1.276596
 C         2.772803        -0.282650         1.972050
 O         4.034254        -0.400549         2.515024
 H         3.946177         2.254386         0.923145
 H         3.519338         1.126446        -0.469081
 H         2.529794         2.639860        -0.073593
 H         2.012181         1.383139         3.402546
 H        -0.753499        -0.751824        -0.023520
 H        -0.103738         0.860774        -0.648567
 H         0.586914        -0.723482        -1.144642
 H         1.479668        -2.172350         1.836114
 H         2.193434        -1.820242         0.338162
 H         3.884041        -0.840770         3.383105
