19
Iteration:   814charge 0 multiplicity 1
 C         2.889038         2.157940         0.602448
 C         2.339608         0.799422         1.210142
 C         1.714497         0.636260         2.528503
 O         0.482728         0.383806         2.048497
 C         1.161680        -0.116884         0.782166
 C         0.000251        -0.141125        -0.269201
 C         1.993003        -1.465290         1.077624
 C         2.774745        -0.422473         2.092255
 O         4.119459        -0.702673         2.642326
 H         3.728782         2.551304         1.222694
 H         3.236916         1.984477        -0.454828
 H         2.212285         2.969083         0.660610
 H         1.989562         1.134893         3.581344
 H        -0.650830        -0.930333         0.229823
 H        -0.532749         0.806004        -0.401182
 H         0.508302        -0.564850        -1.173667
 H         1.449906        -2.268456         1.607342
 H         2.586220        -1.687423         0.130603
 H         4.730800        -0.348540         1.967673
