19
Iteration:  1713
 C         3.059272         1.844998         0.264768
 C         2.244534         0.839362         1.089581
 C         1.778513         0.814222         2.541803
 O         0.466159         0.285287         2.233015
 C         0.996581        -0.175771         0.921187
 C         0.170781        -0.106170        -0.306755
 C         1.921869        -1.383788         1.458121
 C         2.738972        -0.300762         1.970112
 O         4.093892        -0.625694         2.519662
 H         3.898383         2.193860         0.797210
 H         3.462529         1.291673        -0.700040
 H         2.501619         2.633601        -0.125078
 H         1.869945         1.769304         2.946357
 H        -0.570207        -0.885052        -0.317855
 H        -0.236601         0.936778        -0.269355
 H         0.778749        -0.307970        -1.175007
 H         1.380218        -2.135584         2.097670
 H         2.455581        -1.855548         0.652939
 H         3.938586        -0.656821         3.496042
