19
Iteration:  1828
 C         2.993308         1.839789         0.327886
 C         2.358071         0.777130         1.144865
 C         1.786281         0.766602         2.535416
 O         0.434495         0.292749         2.121030
 C         1.057617        -0.100917         0.897620
 C         0.088327        -0.126299        -0.283325
 C         1.931181        -1.355710         1.405688
 C         2.785264        -0.341545         2.065858
 O         4.078530        -0.553401         2.477132
 H         3.853641         2.226185         0.964714
 H         3.448974         1.481691        -0.544961
 H         2.328310         2.737181         0.014406
 H         2.046683         1.560055         3.312903
 H        -0.858658        -0.713152        -0.132287
 H        -0.183878         0.932899        -0.551578
 H         0.615211        -0.639396        -1.150255
 H         1.381825        -2.107048         2.021056
 H         2.604009        -1.978712         0.716249
 H         3.922332        -0.911053         3.356027
