19
Iteration:  4718charge 0 multiplicity 1
 C         3.200204         1.530212         0.162503
 C         2.301599         0.831490         1.111494
 C         1.778741         0.757386         2.599737
 O         0.415234         0.263665         2.234334
 C         1.056049        -0.070530         0.929880
 C         0.060315        -0.056937        -0.270699
 C         1.802483        -1.378489         1.385017
 C         2.737549        -0.257522         2.109836
 O         4.121416        -0.388333         2.443712
 H         3.189026         2.574778         0.416031
 H         4.150973         1.077859         0.398373
 H         2.990094         1.282249        -0.880389
 H         1.885539         1.450980         3.447338
 H        -0.831252        -0.537728        -0.058991
 H        -0.111276         0.980160        -0.645039
 H         0.481954        -0.516274        -1.129570
 H         1.114580        -2.145778         1.904532
 H         2.454136        -1.909687         0.683446
 H         4.211682        -0.593849         3.391843
