19
Iteration:  1655
 C         3.061892         1.776758         0.316106
 C         2.399079         0.779402         1.116118
 C         1.737241         0.745561         2.533644
 O         0.419267         0.429526         2.123316
 C         1.038971        -0.103558         0.912812
 C         0.046401        -0.179159        -0.239867
 C         1.906412        -1.405256         1.350318
 C         2.762780        -0.384824         1.950485
 O         4.140986        -0.453639         2.602798
 H         3.818692         2.409407         0.883388
 H         3.535663         1.328642        -0.578240
 H         2.201691         2.499103         0.068223
 H         1.973634         1.057641         3.623160
 H        -0.953160        -0.338917         0.127762
 H        -0.097993         0.787381        -0.756163
 H         0.385229        -0.846164        -1.070788
 H         1.381245        -2.115865         1.980283
 H         2.460148        -1.896945         0.458057
 H         4.266922        -1.308125         3.079329
