19
Iteration:  4196
 C         2.944487         1.702642         0.077288
 C         2.349339         0.745681         1.064940
 C         1.897468         0.763187         2.487140
 O         0.525636         0.482407         2.307092
 C         1.039651        -0.115975         0.961506
 C         0.054114         0.159481        -0.125302
 C         1.778336        -1.400105         1.328836
 C         2.909863        -0.431716         1.916667
 O         4.083894        -0.749899         2.615665
 H         3.194318         2.656793         0.537459
 H         3.706681         1.181963        -0.469867
 H         2.174428         2.067172        -0.785040
 H         2.058503         1.211404         3.459697
 H        -1.034523        -0.143511         0.255297
 H         0.102767         1.292784        -0.418271
 H         0.297642        -0.438209        -1.094534
 H         1.420760        -2.186349         1.978247
 H         2.139966        -1.857320         0.388880
 H         3.885296        -0.660288         3.565042
