19
Iteration:    42
 C         2.991049         2.122645         0.657015
 C         2.364722         0.927226         1.210574
 C         1.829825         0.570692         2.546312
 O         0.444008         0.225364         2.119013
 C         1.013334        -0.066334         0.794508
 C        -0.073585        -0.236618        -0.254233
 C         2.019737        -1.186830         1.014905
 C         2.869918        -0.291453         1.897235
 O         4.064214        -0.856426         2.632827
 H         3.750322         2.601894         1.350563
 H         3.558887         2.001814        -0.371705
 H         2.256556         2.836211         0.514046
 H         1.923319         1.099347         3.527756
 H        -0.366266        -1.270704        -0.327826
 H        -1.068243         0.177481         0.038433
 H         0.291155         0.172528        -1.242418
 H         1.810073        -2.093255         1.502845
 H         2.516552        -1.431994         0.043923
 H         4.384181        -0.156471         3.244470
