19
Iteration:  3578charge 0 multiplicity 1
 C         3.000303         1.823732         0.211665
 C         2.399784         0.699765         1.070994
 C         1.929472         0.704509         2.449902
 O         0.540977         0.506133         2.142962
 C         0.946495        -0.121322         0.907331
 C         0.068961        -0.252357        -0.302704
 C         1.817751        -1.292984         1.411401
 C         2.817661        -0.418052         2.018719
 O         4.034471        -0.500803         2.711754
 H         4.194716         1.873113         0.314564
 H         2.701556         1.711795        -0.851833
 H         2.506278         2.717739         0.519031
 H         2.335322         1.457826         3.158365
 H        -0.507154        -1.089822        -0.260447
 H        -0.665341         0.602040        -0.241259
 H         0.633278        -0.318177        -1.211298
 H         1.138632        -1.849556         2.109709
 H         2.085423        -2.158868         0.659804
 H         3.978706        -0.816872         3.630229
