19
Iteration:  1513charge 0 multiplicity 1
 C         2.989938         1.847032         0.283743
 C         2.321519         0.796141         1.160116
 C         1.785149         0.732251         2.539179
 O         0.470497         0.339599         2.169684
 C         1.069326        -0.124004         0.884008
 C         0.109669        -0.090816        -0.307987
 C         1.938321        -1.433420         1.368447
 C         2.821915        -0.332502         2.071285
 O         4.028659        -0.551128         2.524910
 H         3.769443         2.520624         0.748390
 H         3.417364         1.420523        -0.591673
 H         2.240821         2.604466         0.012867
 H         2.118383         1.459971         3.228742
 H        -0.691896        -0.864822        -0.127965
 H        -0.453820         0.841455        -0.412537
 H         0.714075        -0.196152        -1.242839
 H         1.414838        -2.082554         2.075006
 H         2.456648        -2.088061         0.545295
 H         3.966292        -1.039559         3.374894
