19
Iteration:  2013charge 0 multiplicity 1
 C         3.042696         1.761474         0.252199
 C         2.327286         0.707770         1.207672
 C         1.661438         0.768169         2.562229
 O         0.377464         0.404634         2.111579
 C         1.063778        -0.123269         0.921496
 C         0.131113        -0.091429        -0.251765
 C         1.927735        -1.407015         1.358728
 C         2.792095        -0.325252         2.114981
 O         4.148918        -0.467241         2.483073
 H         3.964376         2.096288         0.860438
 H         3.376151         1.191767        -0.631844
 H         2.556095         2.771301        -0.033378
 H         1.734399         1.185982         3.483721
 H        -0.533475        -0.948677        -0.201898
 H        -0.374772         0.850923        -0.477334
 H         0.807115        -0.289596        -1.102417
 H         1.273999        -2.145024         1.788513
 H         2.536946        -1.961045         0.588617
 H         4.247949        -1.297858         2.935208
