19
Iteration:  4452charge 0 multiplicity 1
 C         3.028909         1.803879         0.190603
 C         2.339542         0.838869         1.082707
 C         1.936555         0.848341         2.493120
 O         0.478945         0.556164         2.197671
 C         1.091975        -0.124746         0.939877
 C         0.120053        -0.148698        -0.148430
 C         1.758438        -1.382617         1.415590
 C         2.741558        -0.381579         1.990724
 O         4.029111        -0.782811         2.500925
 H         3.625611         1.445677        -0.707828
 H         2.191964         2.530969        -0.163366
 H         3.716508         2.372599         0.757441
 H         2.263591         1.558044         3.250581
 H        -0.570789        -1.060275         0.104664
 H        -0.413921         0.798207        -0.292084
 H         0.618068        -0.429943        -1.159389
 H         1.345594        -2.097067         2.135599
 H         2.324272        -1.896786         0.616482
 H         3.934097        -1.105829         3.416861
