19
Iteration:  2936
 C         3.034010         1.697594         0.183249
 C         2.362083         0.774146         1.165644
 C         1.812301         0.754792         2.589654
 O         0.499259         0.423372         2.207160
 C         1.022352        -0.042053         0.919068
 C         0.136007        -0.077857        -0.218368
 C         1.910603        -1.434321         1.271749
 C         2.731008        -0.393103         1.983027
 O         4.000438        -0.515795         2.596284
 H         4.102420         2.076338         0.324771
 H         3.099400         0.973396        -0.781494
 H         2.358897         2.642480         0.109972
 H         1.947888         1.436108         3.533515
 H        -0.839617        -0.550019        -0.046167
 H         0.026437         0.921518        -0.621918
 H         0.689096        -0.617494        -0.972957
 H         1.514636        -2.444150         1.711655
 H         2.444298        -1.591022         0.348632
 H         3.927472        -0.785762         3.524803
