19
Iteration:  1162charge 0 multiplicity 1
 C         2.887342         2.017191         0.408780
 C         2.411052         0.801277         1.195794
 C         1.748116         0.602964         2.508619
 O         0.394670         0.277767         2.073640
 C         1.151561        -0.121944         0.896269
 C         0.118253        -0.052615        -0.257710
 C         1.972314        -1.301338         1.256376
 C         2.802061        -0.443483         2.031294
 O         4.094273        -0.589801         2.577226
 H         3.807617         2.470856         0.829968
 H         3.291920         1.577805        -0.512389
 H         2.176060         2.735813         0.244353
 H         1.863127         1.146191         3.387769
 H        -0.513459        -0.937349        -0.151825
 H        -0.567111         0.785258        -0.038557
 H         0.498495         0.030115        -1.284296
 H         1.457141        -2.203550         1.602279
 H         2.489900        -1.600664         0.356860
 H         3.956839        -1.112661         3.385942
