19
Iteration:  2304
 C         3.081449         1.911559         0.320889
 C         2.272407         0.911417         0.989276
 C         1.830333         0.738476         2.470599
 O         0.531555         0.347801         2.168889
 C         1.038314        -0.066852         0.914530
 C         0.076966        -0.244762        -0.276574
 C         1.848801        -1.407254         1.398900
 C         2.741853        -0.390859         2.049298
 O         4.016870        -0.649116         2.605502
 H         3.991753         2.099744         0.911676
 H         3.567194         1.538882        -0.625248
 H         2.642857         2.918648         0.153772
 H         2.166103         1.507022         3.169104
 H        -0.723676        -0.915251        -0.040611
 H        -0.420205         0.633874        -0.584420
 H         0.706379        -0.567195        -1.062025
 H         1.406754        -2.058375         2.083448
 H         2.425061        -1.906314         0.692692
 H         4.144189         0.070324         3.216571
