19
Iteration:  4406
 C         2.863878         1.789997         0.110257
 C         2.394461         0.664728         1.059729
 C         1.947519         0.775743         2.455295
 O         0.559461         0.462088         2.212875
 C         1.118377        -0.082425         0.981231
 C         0.163123         0.024146        -0.193335
 C         1.743091        -1.421141         1.440754
 C         2.792906        -0.482723         2.111319
 O         3.997597        -0.607671         2.547833
 H         3.857625         1.518303        -0.324796
 H         2.233954         2.045677        -0.770608
 H         3.233749         2.759729         0.560300
 H         2.263484         1.528122         3.177171
 H        -0.922337        -0.207499         0.139799
 H         0.178899         1.108315        -0.422209
 H         0.194316        -0.383259        -1.203493
 H         1.021624        -2.094666         2.068283
 H         2.072180        -1.952630         0.485944
 H         4.048295        -1.287318         3.250034
