19
Iteration:  4564charge 0 multiplicity 1
 C         3.131065         1.632293         0.122443
 C         2.339747         0.761416         1.164287
 C         1.767425         0.685773         2.611793
 O         0.422431         0.432062         2.211869
 C         1.001961        -0.121755         0.988972
 C         0.105920        -0.027920        -0.174801
 C         1.826861        -1.351439         1.388049
 C         2.780040        -0.369226         1.937289
 O         4.091528        -0.477747         2.467842
 H         2.676837         1.549457        -0.886801
 H         3.421173         2.687827         0.429808
 H         4.037970         1.073774         0.066330
 H         2.006490         1.323631         3.467087
 H        -0.967842        -0.231114        -0.191261
 H         0.125580         1.075554        -0.591411
 H         0.579975        -0.697930        -0.987816
 H         1.657351        -2.142920         2.121426
 H         2.269648        -1.821970         0.543224
 H         3.896859        -0.662017         3.408247
