19
Iteration:  2224charge 0 multiplicity 1
 C         3.215177         1.668290         0.262843
 C         2.316264         0.793300         1.140242
 C         1.792529         0.786301         2.484657
 O         0.467137         0.209853         2.225038
 C         0.993682        -0.076931         0.988723
 C         0.051898        -0.056483        -0.273824
 C         1.931516        -1.396172         1.296163
 C         2.767344        -0.318707         2.021621
 O         3.963849        -0.370261         2.586281
 H         3.953564         2.251737         0.780353
 H         3.589237         1.182160        -0.623020
 H         2.551648         2.502972        -0.306827
 H         2.018309         1.504013         3.338684
 H        -0.735263        -0.756413        -0.207195
 H        -0.230148         0.872677        -0.712753
 H         0.629538        -0.627202        -1.005105
 H         1.502184        -2.238304         1.864560
 H         2.271932        -1.867245         0.406128
 H         4.095104        -1.118539         3.156348
