19
Iteration:  3939charge 0 multiplicity 1
 C         3.240852         1.638877         0.322058
 C         2.390809         0.784749         1.057062
 C         1.900761         0.709243         2.440722
 O         0.456283         0.526753         2.212484
 C         0.914312        -0.015934         0.912991
 C        -0.083825        -0.209563        -0.243153
 C         1.712480        -1.392840         1.472863
 C         2.813314        -0.404028         2.042512
 O         4.138724        -0.475761         2.428802
 H         3.045128         1.735390        -0.786137
 H         3.153044         2.621222         0.826907
 H         4.232707         1.363979         0.364108
 H         2.077809         1.274536         3.364956
 H        -0.766734        -1.015626        -0.051077
 H        -0.577902         0.834108        -0.217861
 H         0.463765        -0.102879        -1.206498
 H         1.222647        -1.916831         2.188023
 H         2.210140        -1.960776         0.659246
 H         4.123345        -1.038030         3.240053
