19
Iteration:  2956charge 0 multiplicity 1
 C         2.840612         1.728825         0.113972
 C         2.372754         0.720206         1.123602
 C         1.868570         0.733361         2.543268
 O         0.488541         0.375572         2.241538
 C         1.113067        -0.094313         0.905435
 C         0.213304        -0.011923        -0.314158
 C         1.847149        -1.342041         1.323158
 C         2.784056        -0.394210         2.083402
 O         4.013112        -0.557224         2.651866
 H         3.852178         2.041655         0.577455
 H         3.125435         1.137461        -0.880272
 H         2.213998         2.592350        -0.131708
 H         2.357621         1.278243         3.416834
 H        -0.814977        -0.340148        -0.125215
 H         0.048290         1.065067        -0.568360
 H         0.585798        -0.502764        -1.177810
 H         1.284073        -1.987573         1.859764
 H         2.260918        -1.810702         0.475498
 H         3.955368        -0.719217         3.631100
