19
Iteration:  4048
 C         3.018658         1.678833         0.102834
 C         2.375390         0.680248         1.033327
 C         1.966663         0.841851         2.511996
 O         0.558354         0.421585         2.247715
 C         1.026246        -0.094775         0.908928
 C         0.014926         0.101026        -0.157230
 C         1.820495        -1.434633         1.375021
 C         2.769555        -0.455388         2.055466
 O         4.006919        -0.563571         2.566217
 H         4.033660         1.335726        -0.311906
 H         2.400823         1.971925        -0.801177
 H         3.139991         2.541918         0.657169
 H         2.150975         1.319707         3.478807
 H        -0.889493        -0.298146         0.102120
 H        -0.196307         1.121213        -0.422831
 H         0.317578        -0.480034        -0.950663
 H         1.243422        -2.094256         2.084859
 H         2.207956        -2.010982         0.461846
 H         4.017188        -1.011330         3.424900
