19
Iteration:  4577
 C         3.070261         1.656716         0.098704
 C         2.378963         0.826372         1.154648
 C         1.804988         0.716980         2.561126
 O         0.425593         0.476378         2.251810
 C         1.012399        -0.064370         1.005341
 C         0.172890        -0.095899        -0.225347
 C         1.866568        -1.392667         1.373058
 C         2.759788        -0.384411         2.030274
 O         4.034178        -0.572597         2.472407
 H         2.454621         1.768721        -0.767734
 H         3.118641         2.669705         0.439077
 H         4.154329         1.433696        -0.239646
 H         1.959950         1.257506         3.497341
 H        -0.732322        -0.518705         0.178006
 H         0.097551         1.008277        -0.716787
 H         0.611003        -0.793257        -0.969828
 H         1.209808        -2.059893         1.863775
 H         2.160747        -1.812782         0.439178
 H         4.185269        -0.635291         3.428357
