19
Iteration:   329
 C         2.923744         1.935151         0.304215
 C         2.231019         0.835239         1.181945
 C         1.725438         0.656801         2.596573
 O         0.518970        -0.076240         2.247350
 C         1.102971        -0.194649         0.833045
 C         0.205827         0.276848        -0.229034
 C         1.975962        -1.373112         1.164876
 C         2.765933        -0.366396         1.953471
 O         4.010824        -0.532341         2.682599
 H         3.772589         2.289137         0.840656
 H         3.210831         1.527180        -0.713347
 H         2.289987         2.768197         0.203433
 H         1.897441         1.240530         3.545637
 H        -0.818154        -0.204773        -0.302922
 H         0.193545         1.314807        -0.023207
 H         0.718091         0.167343        -1.157433
 H         1.343813        -2.160262         1.590908
 H         2.531054        -1.788938         0.276374
 H         4.577117        -0.745715         1.922355
