19
Iteration:   949charge 0 multiplicity 1
 C         2.923345         1.991122         0.465326
 C         2.228031         0.921447         1.183929
 C         1.788268         0.582831         2.537705
 O         0.473620         0.091399         2.282870
 C         1.097756        -0.130513         0.839824
 C         0.235609         0.028258        -0.325961
 C         1.918062        -1.317314         1.129393
 C         2.820126        -0.346549         1.945527
 O         4.059113        -0.626289         2.565810
 H         3.660982         2.446020         1.139796
 H         3.446627         1.628706        -0.361876
 H         2.191558         2.883838         0.191873
 H         1.820165         1.213921         3.346154
 H        -0.426717        -0.935263        -0.577410
 H        -0.571112         0.802730        -0.262096
 H         0.829758         0.050166        -1.257732
 H         1.380041        -2.067559         1.798303
 H         2.384679        -2.034794         0.361120
 H         3.996795        -0.266164         3.444035
