19
Iteration:   542charge 0 multiplicity 1
 C         2.846767         1.857657         0.300520
 C         2.386267         0.866005         1.214199
 C         1.741756         0.567752         2.629791
 O         0.437832         0.275922         2.095954
 C         1.112398        -0.085346         0.876403
 C         0.092761         0.103029        -0.220214
 C         2.018830        -1.376242         1.092907
 C         2.827417        -0.440545         2.067323
 O         4.065354        -0.578783         2.742696
 H         3.787294         2.329457         0.686434
 H         3.069681         1.362445        -0.585169
 H         2.116673         2.737895         0.047877
 H         1.745348         1.128887         3.525133
 H        -0.644034        -0.669248        -0.064704
 H        -0.207845         1.160931        -0.237525
 H         0.523446        -0.140677        -1.250738
 H         1.783243        -2.458266         1.307104
 H         2.353222        -1.284616         0.048024
 H         4.476024        -1.304527         2.298276
