19
Iteration:  1344charge 0 multiplicity 1
 C         2.942712         1.870500         0.321787
 C         2.302091         0.834454         1.140821
 C         1.753659         0.768398         2.507882
 O         0.434241         0.294903         2.149764
 C         1.100100        -0.094611         0.933743
 C         0.149664        -0.064684        -0.308815
 C         2.019336        -1.362808         1.365149
 C         2.762794        -0.371597         2.033553
 O         4.054757        -0.625489         2.612050
 H         3.688630         2.303470         0.959984
 H         3.247360         1.505182        -0.609977
 H         2.212091         2.743622         0.102429
 H         1.938645         1.335314         3.399236
 H        -0.311762        -1.023675        -0.448512
 H        -0.746353         0.581893        -0.205792
 H         0.695478         0.214555        -1.238446
 H         1.467269        -2.211403         1.901184
 H         2.584828        -1.788515         0.551220
 H         4.402533        -1.398858         2.187527
