19
Iteration:  4939
 C         3.191826         1.601046         0.132511
 C         2.323894         0.743137         1.154084
 C         1.735059         0.797397         2.571375
 O         0.489374         0.261324         2.200371
 C         1.043704        -0.122725         0.898769
 C         0.135207        -0.182650        -0.288292
 C         1.833583        -1.299582         1.373373
 C         2.694762        -0.302696         2.173145
 O         4.026754        -0.309293         2.531388
 H         2.974316         1.184192        -0.829196
 H         3.006552         2.659803        -0.010792
 H         4.283511         1.368411         0.414707
 H         1.734102         1.681161         3.221469
 H        -0.764503        -0.600995        -0.087127
 H        -0.020105         0.828822        -0.670115
 H         0.660727        -0.805563        -0.945173
 H         1.129016        -2.107155         1.743946
 H         2.507886        -1.716041         0.519978
 H         4.098329        -0.597430         3.469823
