19
Iteration:  2084charge 0 multiplicity 1
 C         3.080134         1.791225         0.360099
 C         2.389330         0.771957         1.136622
 C         1.743734         0.763796         2.460300
 O         0.468383         0.350739         2.090496
 C         1.070609        -0.207420         0.815923
 C        -0.038961        -0.172608        -0.164768
 C         1.991565        -1.295436         1.272128
 C         2.806294        -0.272960         1.986651
 O         4.042911        -0.604891         2.655763
 H         3.801695         2.339807         0.873931
 H         3.520428         1.321149        -0.556823
 H         2.358375         2.545387         0.044642
 H         1.646972         1.479890         3.417747
 H        -1.018489        -0.491771         0.276527
 H         0.015515         0.894636        -0.358637
 H         0.136389        -0.704194        -1.125149
 H         1.437853        -2.075294         1.845733
 H         2.543560        -1.826711         0.555149
 H         4.235339        -0.038263         3.387933
