19
Iteration:  1109
 C         2.991830         1.935661         0.341835
 C         2.251641         0.884870         1.132402
 C         1.739895         0.649852         2.618937
 O         0.482204         0.104114         2.212476
 C         1.022786        -0.141172         0.967662
 C         0.193113         0.008010        -0.301899
 C         1.968129        -1.326792         1.158238
 C         2.773637        -0.298898         1.949934
 O         4.018351        -0.604165         2.690619
 H         3.783126         2.449476         0.969893
 H         3.450214         1.574686        -0.655025
 H         2.304518         2.699571         0.043205
 H         1.823596         1.111582         3.560016
 H        -0.441778        -0.825493        -0.534282
 H        -0.413913         0.897407        -0.275615
 H         0.892160         0.093810        -1.091301
 H         1.519580        -2.177968         1.652082
 H         2.528386        -1.623457         0.226338
 H         4.613745        -0.819498         1.974392
