19
Iteration:  2354charge 0 multiplicity 1
 C         2.793517         1.877562         0.195104
 C         2.392752         0.756107         1.059024
 C         1.846953         0.779396         2.631756
 O         0.469489         0.494073         2.099033
 C         1.091834        -0.177178         0.939500
 C         0.233588        -0.137983        -0.343228
 C         1.875127        -1.362063         1.400921
 C         2.837946        -0.345883         2.137077
 O         4.040833        -0.727002         2.602233
 H         3.735707         2.388531         0.325782
 H         2.989394         1.428580        -0.759527
 H         2.045154         2.703827         0.082134
 H         2.150166         1.639601         3.271776
 H        -0.644793        -0.816779        -0.151096
 H        -0.409556         0.798646        -0.190625
 H         0.789989        -0.176313        -1.352248
 H         1.227648        -2.259864         1.882093
 H         2.468015        -1.846458         0.549803
 H         3.995645        -0.887885         3.591640
