19
Iteration:   876charge 0 multiplicity 1
 C         2.977902         2.025385         0.495327
 C         2.284849         0.875411         1.225522
 C         1.739396         0.489102         2.644470
 O         0.468646         0.120793         2.243081
 C         1.063375        -0.141028         0.817816
 C         0.128675         0.000973        -0.356381
 C         2.017010        -1.297334         1.132687
 C         2.769169        -0.374179         1.980688
 O         4.015442        -0.490999         2.589363
 H         3.892101         2.386441         0.962463
 H         3.388622         1.582848        -0.472624
 H         2.288573         2.805552         0.152366
 H         2.011430         1.125124         3.537114
 H        -0.707247        -0.604089        -0.412386
 H        -0.214102         1.031792        -0.479246
 H         0.707898        -0.303589        -1.253743
 H         1.546888        -2.173419         1.596167
 H         2.557715        -1.658655         0.315257
 H         4.380307        -1.285727         2.175707
