19
Iteration:  1906charge 0 multiplicity 1
 C         3.035013         1.907543         0.258408
 C         2.273777         0.889581         1.081157
 C         1.760294         0.761041         2.476258
 O         0.453106         0.243886         2.129046
 C         1.026307        -0.100303         0.830175
 C         0.052806        -0.079393        -0.205229
 C         2.057739        -1.413217         1.345461
 C         2.798476        -0.259575         2.120928
 O         4.026602        -0.745657         2.638097
 H         3.950290         2.333850         0.752697
 H         3.381394         1.517267        -0.617664
 H         2.283825         2.686302        -0.183312
 H         1.956566         1.528175         3.146513
 H        -0.872752        -0.548077         0.157246
 H        -0.271478         0.979530        -0.548654
 H         0.403802        -0.878914        -0.895019
 H         1.600033        -2.163941         2.050967
 H         2.743365        -1.896532         0.530540
 H         4.460265        -0.080479         3.157170
