19
Iteration:  4171
 C         3.082262         1.683200         0.192571
 C         2.403146         0.687565         1.036468
 C         1.936427         0.787153         2.465672
 O         0.567227         0.414972         2.223167
 C         1.032548        -0.090287         0.929678
 C        -0.084083         0.121373        -0.118473
 C         1.783090        -1.409670         1.333791
 C         2.811680        -0.359130         2.122059
 O         4.034304        -0.650793         2.488269
 H         3.490529         2.532042         0.732384
 H         3.792956         1.194968        -0.465257
 H         2.362873         2.147853        -0.525067
 H         2.069502         1.476671         3.345439
 H        -0.901017        -0.396369         0.239689
 H        -0.343111         1.114896        -0.228933
 H         0.121446        -0.292668        -1.130364
 H         1.213660        -2.159336         2.024187
 H         2.213734        -1.882805         0.432978
 H         4.149800        -1.077884         3.358989
