19
Iteration:  4557charge 0 multiplicity 1
 C         3.149881         1.565910         0.197076
 C         2.268372         0.803179         1.088340
 C         1.834734         0.755060         2.593406
 O         0.426567         0.371677         2.205508
 C         0.971676        -0.131199         1.006818
 C         0.089508         0.014386        -0.231613
 C         1.859790        -1.401015         1.392847
 C         2.746258        -0.341376         1.961062
 O         4.135707        -0.442126         2.489061
 H         2.680613         1.495218        -0.756160
 H         3.421380         2.547498         0.419891
 H         4.223144         1.093010         0.091283
 H         2.038641         1.309775         3.509884
 H        -0.985179        -0.194079        -0.091348
 H        -0.026742         1.073916        -0.532505
 H         0.330779        -0.565862        -1.073071
 H         1.366963        -2.159685         2.027262
 H         2.247993        -1.941476         0.501869
 H         4.030362        -0.775887         3.404506
