19
Iteration:  2142charge 0 multiplicity 1
 C         2.853734         1.894793         0.273128
 C         2.277625         0.784738         1.021248
 C         1.918862         0.791085         2.489385
 O         0.465655         0.398956         2.201617
 C         0.994523        -0.020418         0.936258
 C         0.268505        -0.206769        -0.315461
 C         1.870002        -1.381918         1.424243
 C         2.887392        -0.338167         1.971846
 O         3.978110        -0.727307         2.621169
 H         3.793969         2.269524         0.759344
 H         3.229408         1.461793        -0.723912
 H         2.230551         2.714084         0.140085
 H         2.085128         1.460057         3.331349
 H        -0.412745        -1.093048        -0.123691
 H        -0.436265         0.591163        -0.662964
 H         1.039739        -0.292648        -1.118059
 H         1.403828        -2.087908         2.178412
 H         2.553797        -1.834037         0.641817
 H         3.929221        -0.291893         3.514063
