19
Iteration:  1966
 C         3.017918         1.892513         0.184558
 C         2.303052         0.770245         1.057312
 C         1.813684         0.722644         2.517119
 O         0.457933         0.324270         2.252742
 C         1.029821        -0.130179         0.940438
 C         0.221653        -0.160612        -0.318497
 C         1.778866        -1.351156         1.337435
 C         2.774652        -0.329460         1.996702
 O         4.113728        -0.566153         2.653546
 H         3.802139         2.363184         0.753345
 H         3.285356         1.647047        -0.945764
 H         2.277911         2.646911         0.165797
 H         2.129634         1.245011         3.530850
 H        -0.386007        -1.090832        -0.474934
 H        -0.446435         0.691710        -0.268425
 H         0.858134         0.061360        -1.207030
 H         1.179189        -2.080876         1.952669
 H         2.201645        -1.909065         0.508556
 H         4.045915        -0.746874         3.615709
