19
Iteration:  2812
 C         3.075380         1.821161         0.181310
 C         2.326803         0.846976         1.085885
 C         1.805696         0.801446         2.503988
 O         0.459372         0.333434         2.186988
 C         1.039964        -0.078591         0.930871
 C         0.122438        -0.090659        -0.188981
 C         1.911817        -1.354949         1.392286
 C         2.756113        -0.345731         2.064146
 O         4.037272        -0.681518         2.543993
 H         3.921526         2.398589         0.682131
 H         3.406860         1.330049        -0.749445
 H         2.323968         2.424995        -0.250958
 H         2.058147         1.480919         3.349274
 H        -0.726376        -0.699009        -0.121207
 H        -0.285033         0.899631        -0.352139
 H         0.690772        -0.398336        -1.050708
 H         1.457335        -2.121725         2.076030
 H         2.391937        -1.795553         0.483819
 H         3.724602        -1.218502         3.314778
