19
Iteration:  2001charge 0 multiplicity 1
 C         3.004951         1.717860         0.289313
 C         2.336810         0.778149         1.118651
 C         1.751224         0.737299         2.605352
 O         0.359550         0.384556         2.084859
 C         1.090544        -0.205390         0.882685
 C         0.192234        -0.087880        -0.281895
 C         1.911619        -1.326083         1.441191
 C         2.749261        -0.294571         2.156412
 O         4.107802        -0.519748         2.459820
 H         3.971950         2.063611         0.758809
 H         3.318340         1.445305        -0.789270
 H         2.267886         2.539415         0.170493
 H         1.854994         1.493489         3.381251
 H        -0.561599        -0.894943        -0.325842
 H        -0.356474         0.823330        -0.053797
 H         0.677266        -0.039558        -1.265826
 H         1.593125        -2.143861         2.081660
 H         2.546869        -1.622998         0.580486
 H         4.135014        -1.402368         2.914720
