19
Iteration:  2879
 C         3.395335         1.738200         0.439274
 C         2.336588         0.840226         1.048854
 C         1.782463         0.814260         2.453883
 O         0.437165         0.403170         2.186247
 C         0.962918        -0.192295         0.852242
 C        -0.018428        -0.216966        -0.161458
 C         1.820277        -1.395470         1.356938
 C         2.694443        -0.358451         2.031415
 O         4.052764        -0.449107         2.420854
 H         4.247260         1.942836         1.185751
 H         3.715772         1.467496        -0.624824
 H         2.775307         2.565030         0.209563
 H         1.999765         1.417996         3.286198
 H        -0.791030        -0.935188         0.003795
 H        -0.530025         0.763291        -0.020093
 H         0.371481        -0.346994        -1.120913
 H         1.344421        -2.137025         1.979926
 H         2.401288        -1.914449         0.592820
 H         4.306051        -0.907300         3.240358
