19
Iteration:   363charge 0 multiplicity 1
 C         2.905305         1.900431         0.359453
 C         2.306950         0.827498         1.218169
 C         1.745674         0.516074         2.630320
 O         0.478500         0.213058         2.064399
 C         1.095483        -0.116957         0.853898
 C         0.020312         0.104821        -0.209661
 C         2.088645        -1.323904         1.095359
 C         2.820489        -0.419238         2.011650
 O         4.041741        -0.584621         2.731839
 H         3.760888         2.397447         0.757702
 H         3.149541         1.797245        -0.697030
 H         2.171554         2.696122         0.368204
 H         2.062536         0.961875         3.511282
 H        -0.981590        -0.366864        -0.072624
 H        -0.227014         1.161427        -0.115463
 H         0.318664         0.014212        -1.206135
 H         1.540442        -2.227906         1.481025
 H         2.712073        -1.471949         0.226541
 H         4.741666        -0.966071         2.215157
