19
Iteration:   608
 C         2.939745         1.989830         0.602957
 C         2.357879         0.756978         1.193384
 C         1.750461         0.659019         2.538290
 O         0.404695         0.404657         2.154026
 C         1.101233        -0.128359         0.859840
 C         0.190073        -0.152643        -0.340628
 C         1.887947        -1.351604         1.326802
 C         2.815365        -0.392441         1.988118
 O         4.052356        -0.682253         2.470929
 H         3.651668         2.487240         1.295920
 H         3.353256         1.817169        -0.326733
 H         2.156506         2.825784         0.422878
 H         2.093473         1.264508         3.293234
 H        -0.529384        -0.989993        -0.175936
 H        -0.344306         0.789189        -0.498589
 H         0.712479        -0.240163        -1.329448
 H         1.524522        -2.229958         1.897061
 H         2.307833        -1.692592         0.349526
 H         4.612616        -0.240927         1.762285
