19
Iteration:  3042charge 0 multiplicity 1
 C         3.235229         1.754686         0.318493
 C         2.367355         0.837579         1.135496
 C         1.799971         0.692591         2.558358
 O         0.448413         0.489198         2.185081
 C         0.975611        -0.091008         0.897463
 C         0.036805        -0.289666        -0.259249
 C         1.818241        -1.324805         1.310349
 C         2.768893        -0.312685         1.979334
 O         4.049916        -0.530986         2.528732
 H         4.043743         2.276530         0.953534
 H         3.741963         1.277639        -0.423714
 H         2.673805         2.456453        -0.234519
 H         2.261072         1.398331         3.350308
 H        -0.536699        -1.187907         0.107025
 H        -0.793618         0.487680        -0.349451
 H         0.596378        -0.545026        -1.143723
 H         1.180239        -2.040469         1.919257
 H         2.215498        -1.863024         0.383758
 H         3.984858        -0.853553         3.440288
