19
Iteration:   710charge 0 multiplicity 1
 C         2.946571         1.855196         0.399775
 C         2.376896         0.818274         1.244031
 C         1.716031         0.541653         2.538504
 O         0.448487         0.187359         2.078624
 C         1.055182        -0.062933         0.864383
 C         0.079409         0.101630        -0.262964
 C         1.974734        -1.331081         1.154221
 C         2.809349        -0.487989         2.091992
 O         4.115619        -0.414586         2.645031
 H         3.820058         2.404167         0.711687
 H         3.249790         1.368980        -0.502622
 H         2.119889         2.541629         0.079014
 H         1.692280         0.731754         3.641711
 H        -0.737486        -0.652382        -0.082358
 H        -0.377520         1.105519        -0.134442
 H         0.480389        -0.040888        -1.235385
 H         1.495962        -2.249844         1.478949
 H         2.617429        -1.575924         0.289066
 H         4.485855        -1.285362         2.532060
