19
Iteration:  4081charge 0 multiplicity 1
 C         3.230450         1.634958         0.240568
 C         2.367078         0.773986         1.063940
 C         1.878078         0.833753         2.584309
 O         0.444548         0.488437         2.201521
 C         1.018537        -0.126152         0.950676
 C        -0.059644        -0.071490        -0.143172
 C         1.795201        -1.358452         1.404791
 C         2.762284        -0.358972         2.009697
 O         4.080566        -0.616501         2.362760
 H         4.303416         1.286732         0.309519
 H         2.835328         1.698438        -0.815624
 H         3.234732         2.587675         0.647074
 H         1.916427         1.423191         3.511322
 H        -0.806741        -0.745042         0.031447
 H        -0.397088         0.930573        -0.264806
 H         0.415043        -0.283663        -1.027862
 H         1.128327        -1.914399         2.154033
 H         2.133962        -2.006032         0.538864
 H         4.299256        -0.927464         3.259922
