19
Iteration:  3694
 C         3.242175         1.563146         0.283855
 C         2.289014         0.715210         1.074878
 C         1.742715         0.785580         2.508384
 O         0.459532         0.362730         2.168847
 C         1.030428        -0.138453         0.950470
 C        -0.051327         0.003233        -0.265289
 C         1.858022        -1.422216         1.377577
 C         2.766195        -0.376776         2.021123
 O         4.153902        -0.314576         2.552849
 H         3.555144         2.510776         0.513865
 H         4.149900         0.991909         0.075616
 H         2.843902         1.465279        -0.795429
 H         1.909789         1.507117         3.371240
 H        -1.104856        -0.389199         0.254602
 H        -0.339043         1.144521        -0.388453
 H         0.145879        -0.643698        -1.148917
 H         1.268558        -2.246831         1.784952
 H         2.483683        -1.912842         0.703637
 H         4.115286        -0.815927         3.378379
