19
Iteration:  1382
 C         2.968410         1.897941         0.372587
 C         2.366630         0.753878         1.146890
 C         1.814337         0.759136         2.506868
 O         0.469485         0.274862         2.238007
 C         1.008200        -0.046356         0.882066
 C         0.184791        -0.120566        -0.347922
 C         1.854735        -1.392647         1.324884
 C         2.799882        -0.412647         2.023387
 O         4.033371        -0.581554         2.549618
 H         3.939104         2.271095         0.864717
 H         3.336527         1.627944        -0.709225
 H         2.286035         2.722619         0.292174
 H         1.913899         1.135172         3.514291
 H        -0.492287        -1.028060        -0.182859
 H        -0.366145         0.811708        -0.506148
 H         0.812359        -0.332442        -1.216356
 H         1.326120        -2.045980         1.998939
 H         2.280134        -1.934999         0.416767
 H         4.320643         0.334399         2.733997
