19
Iteration:  1673charge 0 multiplicity 1
 C         2.997140         1.793335         0.313676
 C         2.336448         0.777791         1.213361
 C         1.848493         0.628240         2.604464
 O         0.450392         0.516562         2.092870
 C         1.084071        -0.066336         0.856900
 C         0.102097        -0.183832        -0.268464
 C         1.829394        -1.485499         1.330719
 C         2.832099        -0.428948         2.093431
 O         4.053585        -0.397829         2.522337
 H         3.788296         2.389523         0.827503
 H         3.435813         1.265717        -0.492436
 H         2.244672         2.523973        -0.134625
 H         1.908731         1.382578         3.276509
 H        -0.910928        -0.609148         0.119256
 H        -0.133685         0.765655        -0.729098
 H         0.474212        -0.814134        -1.099848
 H         1.434987        -2.206354         2.072747
 H         2.355534        -1.801639         0.444755
 H         4.350606        -1.273677         2.854225
