19
Iteration:     3charge 0 multiplicity 1
 C         2.964496         2.019447         0.595215
 C         2.283598         0.861775         1.235315
 C         1.748706         0.556995         2.609602
 O         0.465701         0.123162         2.161480
 C         1.078793        -0.097786         0.854902
 C         0.107673         0.021332        -0.278908
 C         1.984741        -1.347219         1.057666
 C         2.807646        -0.396031         1.976793
 O         4.074589        -0.538677         2.447669
 H         3.746842         2.384015         1.241611
 H         3.337723         1.786461        -0.352326
 H         2.185591         2.868076         0.469923
 H         1.895213         1.002150         3.547802
 H        -0.589554        -0.869090        -0.170223
 H        -0.384980         0.967711        -0.288419
 H         0.603274        -0.133475        -1.218805
 H         1.557058        -2.268232         1.599609
 H         2.613184        -1.591573         0.197833
 H         4.052011        -0.999382         3.322295
