19
Iteration:  1081
 C         2.974979         1.870080         0.468905
 C         2.274082         0.835273         1.231290
 C         1.679228         0.586758         2.620609
 O         0.412965         0.209357         2.122372
 C         1.132367        -0.084213         0.840716
 C         0.171959        -0.004725        -0.335299
 C         1.983198        -1.350689         1.221366
 C         2.751005        -0.375203         2.080428
 O         4.163035        -0.496850         2.469239
 H         3.722403         2.441439         0.958291
 H         3.179908         1.641816        -0.525063
 H         2.072705         2.560968         0.219093
 H         1.926727         1.022561         3.673381
 H        -0.666229        -0.743831        -0.084589
 H        -0.244971         1.036349        -0.261382
 H         0.426781        -0.225476        -1.433257
 H         1.452277        -2.183012         1.789875
 H         2.626309        -1.462640         0.329207
 H         4.058909        -1.290752         3.039487
