19
Iteration:  4384charge 0 multiplicity 1
 C         3.041152         1.634339         0.090512
 C         2.356043         0.733148         1.125421
 C         1.871066         0.775642         2.526061
 O         0.518212         0.460530         2.270699
 C         0.965557        -0.070086         0.990299
 C         0.067003         0.058283        -0.179768
 C         1.849510        -1.449530         1.385323
 C         2.821020        -0.382194         1.958826
 O         4.050449        -0.588618         2.541786
 H         4.063444         1.531347        -0.308845
 H         2.360313         1.823498        -0.766376
 H         3.177401         2.662691         0.566971
 H         2.360544         1.192678         3.397359
 H        -1.026182        -0.263207        -0.061893
 H         0.153147         1.085606        -0.624430
 H         0.393512        -0.564672        -1.011690
 H         1.236649        -2.230541         1.951155
 H         2.206755        -1.935927         0.428274
 H         3.691702        -0.917099         3.385168
