19
Iteration:  4925
 C         3.120582         1.432784         0.193556
 C         2.339776         0.802340         1.176024
 C         1.779074         0.845464         2.539243
 O         0.429418         0.276337         2.221241
 C         1.035624        -0.049385         0.905226
 C         0.167542        -0.146072        -0.329676
 C         1.846096        -1.352558         1.308333
 C         2.709498        -0.323408         2.153322
 O         4.049712        -0.266598         2.550592
 H         3.189751         0.810722        -0.704525
 H         2.576969         2.440253         0.080822
 H         4.189274         1.747121         0.376715
 H         1.934637         1.390208         3.469322
 H        -0.757729        -0.663584         0.014174
 H        -0.127188         0.873901        -0.923959
 H         0.620486        -0.787123        -1.080603
 H         1.331008        -2.137077         1.893516
 H         2.500331        -1.639559         0.519346
 H         4.261069        -0.760592         3.368077
