19
Iteration:  1420charge 0 multiplicity 1
 C         3.020143         1.862091         0.376702
 C         2.385645         0.833492         1.110347
 C         1.707112         0.775267         2.537972
 O         0.419273         0.337393         2.131415
 C         1.072303        -0.164232         0.916507
 C         0.047462        -0.122496        -0.263132
 C         1.981250        -1.379785         1.262693
 C         2.766669        -0.389968         2.039795
 O         4.120466        -0.522216         2.561400
 H         3.940066         2.140270         0.839462
 H         3.315939         1.453992        -0.601861
 H         2.277801         2.719506         0.322871
 H         1.922801         1.244499         3.567862
 H        -0.900845        -0.438747         0.114941
 H        -0.110315         0.846481        -0.772079
 H         0.264828        -0.850588        -1.066268
 H         1.605977        -2.282094         1.824621
 H         2.484638        -1.645772         0.374634
 H         4.165479        -1.270146         3.247638
