19
Iteration:  1246charge 0 multiplicity 1
 C         2.993691         1.834799         0.472924
 C         2.353451         0.806348         1.250596
 C         1.752746         0.613240         2.622146
 O         0.394123         0.307169         2.071488
 C         1.101786        -0.147782         0.796938
 C         0.074966        -0.091132        -0.273036
 C         1.999094        -1.321424         1.257410
 C         2.783494        -0.338893         2.053766
 O         4.107304        -0.480391         2.476211
 H         3.799469         2.238928         1.113479
 H         3.285974         1.483311        -0.512085
 H         2.133075         2.709059         0.344587
 H         1.839233         1.332935         3.338024
 H        -0.891207        -0.501803         0.049851
 H        -0.072755         0.960832        -0.651199
 H         0.433323        -0.718874        -1.167869
 H         1.388471        -2.157205         1.835983
 H         2.516964        -1.662002         0.367773
 H         4.204822        -1.246349         3.055197
