19
Iteration:  3512
 C         3.214416         1.529408         0.263427
 C         2.288037         0.824097         1.140076
 C         1.707537         0.799631         2.553553
 O         0.404837         0.340503         2.242050
 C         1.025024        -0.130958         0.910292
 C         0.027413        -0.157353        -0.319061
 C         1.927874        -1.340883         1.302839
 C         2.745555        -0.313561         2.122022
 O         4.142115        -0.386013         2.486259
 H         4.301273         1.297983         0.631430
 H         3.187709         1.142630        -0.759902
 H         3.007909         2.532005         0.110019
 H         1.876829         1.489797         3.445527
 H        -0.958433        -0.389392        -0.063855
 H        -0.103315         0.971577        -0.571968
 H         0.246443        -0.747260        -1.187174
 H         1.331604        -1.926831         1.963919
 H         2.435076        -1.778773         0.350606
 H         4.059737        -0.454965         3.461991
