19
Iteration:  4482charge 0 multiplicity 1
 C         3.213396         1.658927         0.228605
 C         2.367625         0.802608         1.124766
 C         1.939368         0.794990         2.522666
 O         0.488933         0.446743         2.249279
 C         0.978182        -0.040161         0.924811
 C        -0.031653        -0.216213        -0.218560
 C         1.712857        -1.268974         1.337982
 C         2.770988        -0.379277         2.025066
 O         4.053441        -0.591817         2.486980
 H         3.152761         1.513565        -0.859627
 H         2.811880         2.683890         0.350093
 H         4.284309         1.813322         0.565571
 H         2.242966         1.504703         3.283053
 H        -0.681061        -1.118823        -0.079181
 H        -0.704048         0.558260        -0.492654
 H         0.442902        -0.417809        -1.150179
 H         1.391744        -2.125135         2.063312
 H         2.323029        -1.680907         0.450964
 H         4.015406        -0.700245         3.454452
