19
Iteration:  2635
 C         3.218997         1.726204         0.346465
 C         2.289340         0.787974         1.065182
 C         1.809573         0.760408         2.484694
 O         0.494110         0.321524         2.172895
 C         1.017970        -0.127581         0.858400
 C         0.029868        -0.120407        -0.194963
 C         1.904685        -1.306157         1.359988
 C         2.694961        -0.274536         2.021995
 O         4.016108        -0.524936         2.482372
 H         3.973535         2.092727         1.101358
 H         3.728772         1.145166        -0.325224
 H         2.755366         2.585863         0.005979
 H         2.187947         1.378249         3.241958
 H        -0.715151        -0.742598         0.218199
 H        -0.451606         0.830700        -0.078789
 H         0.189238        -0.377521        -1.233789
 H         1.434868        -2.193358         1.979019
 H         2.562590        -1.914238         0.642843
 H         3.950421        -0.968324         3.362472
