19
Iteration:  4613
 C         2.971992         1.876875         0.191965
 C         2.383862         0.723734         1.019589
 C         1.891417         0.841110         2.432185
 O         0.519522         0.484301         2.198257
 C         1.051202        -0.112493         0.953252
 C         0.083011        -0.153863        -0.268177
 C         1.852603        -1.339197         1.459467
 C         2.821244        -0.347405         2.071909
 O         4.041542        -0.764812         2.602806
 H         2.199976         1.967397        -0.587295
 H         2.832583         2.728210         0.825289
 H         4.008258         1.692240        -0.316813
 H         2.109289         1.630525         3.177996
 H        -0.822514        -0.822342        -0.213939
 H        -0.522586         0.775654        -0.428416
 H         0.519245        -0.445790        -1.205466
 H         1.275614        -1.918081         2.221323
 H         2.317749        -1.939455         0.610721
 H         3.819556        -1.118549         3.488361
