19
Iteration:   448charge 0 multiplicity 1
 C         2.970958         1.981423         0.694981
 C         2.364218         0.713650         1.163180
 C         1.709514         0.678658         2.570433
 O         0.462734         0.351176         2.031011
 C         1.103644        -0.118289         0.859453
 C         0.121744        -0.111752        -0.267870
 C         1.852555        -1.370446         1.265450
 C         2.773531        -0.354256         2.078313
 O         4.117944        -0.572691         2.406400
 H         3.641368         2.313162         1.460957
 H         3.562180         1.692779        -0.283053
 H         2.198415         2.636324         0.545061
 H         2.015684         1.325156         3.299828
 H        -0.498418        -1.070485        -0.116672
 H        -0.403085         0.810169        -0.156092
 H         0.503209        -0.206085        -1.241533
 H         1.288003        -2.175356         1.769879
 H         2.425886        -1.737693         0.341518
 H         4.589226        -1.143203         1.721507
