19
Iteration:  1762
 C         2.968273         1.783737         0.216389
 C         2.385282         0.800114         1.153997
 C         1.863251         0.718780         2.535784
 O         0.401167         0.457288         2.181749
 C         1.104987        -0.132656         0.867203
 C         0.071726        -0.162497        -0.226675
 C         1.889575        -1.380727         1.168470
 C         2.763564        -0.449888         2.101695
 O         4.042740        -0.540587         2.746045
 H         3.983961         2.128607         0.605301
 H         3.153546         1.332419        -0.684015
 H         2.278112         2.661290        -0.074025
 H         2.120918         1.403702         3.451899
 H        -0.417520        -1.184318        -0.373337
 H        -0.639188         0.651652        -0.018422
 H         0.612521        -0.061597        -1.206211
 H         1.284789        -2.178973         1.667395
 H         2.531977        -1.656992         0.234749
 H         4.791054         0.040221         2.473054
