19
Iteration:  4040
 C         2.998793         1.694293         0.063712
 C         2.360836         0.656581         1.094969
 C         1.944226         0.787421         2.506068
 O         0.613272         0.441002         2.246679
 C         1.037660        -0.122291         0.939168
 C         0.075225         0.091938        -0.139132
 C         1.798535        -1.410016         1.319529
 C         2.716648        -0.421890         2.046227
 O         3.981055        -0.570101         2.576123
 H         3.921027         1.397493        -0.469372
 H         2.283318         1.960759        -0.743596
 H         3.186107         2.614534         0.598509
 H         2.385675         1.400024         3.337669
 H        -0.906169        -0.269409         0.264421
 H        -0.026121         1.151671        -0.372961
 H         0.339503        -0.552488        -1.076879
 H         1.353145        -2.078909         1.952763
 H         2.363603        -1.970644         0.655989
 H         3.779630        -0.971797         3.433436
