19
Iteration:  2509
 C         3.151273         1.871446         0.345724
 C         2.413435         0.729602         1.076926
 C         1.824086         0.723155         2.507253
 O         0.463225         0.489071         2.135912
 C         1.003913        -0.134912         0.884180
 C         0.044148        -0.196958        -0.200058
 C         1.834081        -1.397970         1.317405
 C         2.758270        -0.379221         2.048372
 O         4.045126        -0.526349         2.553010
 H         4.067426         2.105972         0.754217
 H         3.270559         1.499187        -0.661738
 H         2.414491         2.680415         0.221486
 H         1.832945         1.474540         3.312473
 H        -0.663583        -1.094898        -0.040128
 H        -0.561488         0.721181        -0.305710
 H         0.629333        -0.391385        -1.153571
 H         1.376136        -1.993364         2.060017
 H         2.403686        -1.803281         0.559234
 H         4.115691        -1.249008         3.180231
