19
Iteration:  2741
 C         2.934725         1.763227         0.269001
 C         2.315331         0.785752         1.108136
 C         1.873868         0.738372         2.502684
 O         0.481749         0.350213         2.168323
 C         1.042669        -0.083724         0.921809
 C         0.117305         0.050270        -0.287753
 C         1.885324        -1.452968         1.423706
 C         2.870627        -0.413383         2.002539
 O         4.042034        -0.577330         2.605021
 H         3.980435         2.059237         0.493392
 H         2.965581         1.286565        -0.768389
 H         2.283036         2.683010        -0.117611
 H         2.199544         1.339822         3.287655
 H        -0.898453        -0.525019        -0.187523
 H        -0.217755         1.083579        -0.622589
 H         0.689252        -0.479448        -1.113530
 H         1.310266        -2.086135         1.991507
 H         2.274552        -1.885984         0.520456
 H         3.926969        -0.567285         3.575915
