19
Iteration:  4232
 C         2.885746         1.738893         0.078997
 C         2.379371         0.761723         1.074404
 C         1.919870         0.802636         2.554680
 O         0.614671         0.459070         2.356159
 C         1.057879        -0.051162         0.915960
 C         0.112169         0.044554        -0.247494
 C         1.716555        -1.353473         1.355688
 C         2.787534        -0.342635         2.088115
 O         4.061372        -0.843666         2.506902
 H         3.442347         2.608593         0.515674
 H         3.734619         1.272079        -0.538636
 H         2.033567         2.012062        -0.588960
 H         2.121173         1.276446         3.518936
 H        -0.861033        -0.427902         0.264381
 H        -0.124388         1.165034        -0.580186
 H         0.491955        -0.604040        -1.061035
 H         1.039044        -2.112815         1.687175
 H         2.171256        -1.699328         0.399811
 H         4.201538        -0.620076         3.445224
