19
Iteration:  1141charge 0 multiplicity 1
 C         2.888619         1.911929         0.398020
 C         2.315271         0.829025         1.194741
 C         1.798782         0.653028         2.649724
 O         0.521257         0.272123         2.189651
 C         1.099223        -0.098699         0.832879
 C         0.081981        -0.025494        -0.323446
 C         2.017733        -1.406074         1.083187
 C         2.760826        -0.341386         1.966033
 O         4.045362        -0.655543         2.662580
 H         3.742723         2.455471         0.882755
 H         3.330346         1.513400        -0.564638
 H         2.092867         2.545613         0.278609
 H         1.885828         1.213838         3.537891
 H        -0.433919        -0.968304        -0.384371
 H        -0.665800         0.752108        -0.184270
 H         0.627948         0.156916        -1.227623
 H         1.385311        -2.156940         1.541889
 H         2.616468        -1.886137         0.284217
 H         4.174184         0.157352         3.298759
