19
Iteration:  2515charge 0 multiplicity 1
 C         3.048138         1.856222         0.336470
 C         2.455769         0.724351         1.120545
 C         1.833902         0.765480         2.511456
 O         0.487467         0.485220         2.114099
 C         1.048645        -0.150974         0.880042
 C         0.040426        -0.210713        -0.220014
 C         1.817688        -1.363344         1.340763
 C         2.771645        -0.379502         2.017527
 O         4.005023        -0.551727         2.560251
 H         4.143153         2.216457         0.720817
 H         3.217906         1.304948        -0.687995
 H         2.417090         2.744850         0.343612
 H         1.946266         1.404257         3.370841
 H        -0.748889        -0.912703        -0.158221
 H        -0.491303         0.741433        -0.275113
 H         0.570120        -0.282971        -1.168756
 H         1.413071        -2.041030         2.172901
 H         2.626527        -1.786292         0.594540
 H         4.197858        -1.289934         3.161919
