19
Iteration:  1718charge 0 multiplicity 1
 C         3.063804         1.836227         0.230690
 C         2.216367         0.830197         1.102619
 C         1.786866         0.776234         2.548671
 O         0.436803         0.318176         2.254794
 C         1.024392        -0.239714         0.857083
 C         0.172735        -0.082397        -0.303928
 C         1.960844        -1.374785         1.457226
 C         2.777985        -0.283683         2.003520
 O         4.067075        -0.645015         2.516384
 H         3.993537         2.178741         0.809149
 H         3.403830         1.345150        -0.601138
 H         2.486895         2.757528        -0.187904
 H         2.006305         1.739953         3.164045
 H        -0.599639        -0.930682        -0.252989
 H        -0.379372         0.840778        -0.198197
 H         0.748666        -0.215059        -1.254678
 H         1.269166        -1.903869         2.124220
 H         2.520548        -1.818580         0.593220
 H         3.818626        -0.390827         3.425095
