19
Iteration:  1314charge 0 multiplicity 1
 C         2.933321         1.884709         0.288524
 C         2.347693         0.821739         1.225339
 C         1.811590         0.640712         2.561154
 O         0.484829         0.327878         2.141969
 C         1.098653        -0.048250         0.902120
 C         0.089374        -0.100853        -0.277166
 C         1.951924        -1.354926         1.165562
 C         2.767554        -0.470367         2.056614
 O         4.069251        -0.569094         2.634584
 H         3.769028         2.490046         0.776379
 H         3.384899         1.379334        -0.606643
 H         2.066269         2.568478        -0.092348
 H         1.976588         1.353912         3.436657
 H        -0.388016        -1.138211        -0.372700
 H        -0.706021         0.686109        -0.142578
 H         0.506984         0.097378        -1.283483
 H         1.298215        -2.173790         1.625128
 H         2.544436        -1.578984         0.259160
 H         4.053672        -0.375956         3.622947
