19
Iteration:    87
 C         2.878117         2.087056         0.650069
 C         2.368170         0.800842         1.157929
 C         1.771051         0.659510         2.567186
 O         0.472683         0.153912         2.172647
 C         1.126691        -0.076120         0.851641
 C         0.109667        -0.050812        -0.304237
 C         1.970164        -1.345536         1.163593
 C         2.811460        -0.338585         1.950455
 O         4.010721        -0.742480         2.472996
 H         3.603103         2.532718         1.378897
 H         3.410448         2.073644        -0.371378
 H         2.068861         2.752571         0.578942
 H         1.929255         1.091928         3.507931
 H        -0.240045        -1.029284        -0.521175
 H        -0.796546         0.489682        -0.026758
 H         0.606235         0.436316        -1.157157
 H         1.367046        -2.083623         1.575405
 H         2.620511        -1.743386         0.380689
 H         4.639486        -0.031201         2.590862
