19
Iteration:  4307
 C         3.293140         1.595425         0.314423
 C         2.368777         0.711180         1.072739
 C         1.917578         0.822549         2.505280
 O         0.512889         0.469113         2.236197
 C         0.866759        -0.039168         0.912516
 C        -0.159685        -0.121416        -0.186719
 C         1.733463        -1.323111         1.341360
 C         2.805464        -0.396816         2.005805
 O         4.145597        -0.504089         2.430814
 H         4.262945         1.214877         0.715316
 H         3.431217         1.718665        -0.762448
 H         3.142381         2.731230         0.658967
 H         2.049426         1.391500         3.430636
 H        -0.886778        -1.055328         0.006008
 H        -0.931366         0.772682        -0.108604
 H         0.320975        -0.274920        -1.160039
 H         1.286830        -1.942273         2.146479
 H         2.096965        -1.823153         0.420561
 H         4.156889        -1.219665         3.099004
