19
Iteration:  3050
 C         3.251906         1.748054         0.330403
 C         2.356011         0.846109         1.117466
 C         1.845476         0.750709         2.609707
 O         0.412537         0.437201         2.160387
 C         1.045308        -0.065023         0.887653
 C         0.000874        -0.290252        -0.179167
 C         1.855231        -1.347295         1.275739
 C         2.752162        -0.326242         1.989187
 O         3.999103        -0.512839         2.480876
 H         4.044443         2.025917         1.097266
 H         3.859085         1.074731        -0.512278
 H         2.906560         2.648303        -0.304397
 H         1.917024         1.488981         3.330499
 H        -0.590682        -1.189080         0.050770
 H        -0.690478         0.575903        -0.418082
 H         0.628838        -0.501367        -1.046804
 H         1.323275        -1.975648         2.113057
 H         2.272764        -1.967394         0.391664
 H         3.822899        -0.824631         3.371373
