19
Iteration:  1664charge 0 multiplicity 1
 C         2.996031         1.807589         0.308097
 C         2.387788         0.754369         1.224259
 C         1.804125         0.688501         2.578102
 O         0.468166         0.469779         2.021078
 C         0.994909        -0.083203         0.918081
 C         0.032858        -0.120551        -0.257860
 C         1.934216        -1.453553         1.353988
 C         2.790331        -0.428780         2.036095
 O         4.103561        -0.408914         2.565470
 H         3.872601         2.316382         0.866746
 H         3.486395         1.285561        -0.459972
 H         2.337937         2.613436        -0.240770
 H         1.983117         1.156841         3.552951
 H        -0.862918        -0.672229         0.106929
 H        -0.128979         0.730542        -0.878754
 H         0.500778        -0.962477        -0.791012
 H         1.387800        -2.179598         1.954131
 H         2.098744        -1.974385         0.382940
 H         4.263670        -1.317585         2.901990
