19
Iteration:  3668
 C         3.187356         1.568554         0.167915
 C         2.302314         0.708016         1.068809
 C         1.826624         0.759640         2.574076
 O         0.493030         0.412916         2.234871
 C         1.005719        -0.134990         1.021492
 C         0.154117        -0.077399        -0.244141
 C         1.836953        -1.322771         1.333242
 C         2.693484        -0.353401         2.028405
 O         4.003180        -0.396164         2.509972
 H         3.316477         2.634916         0.649954
 H         4.156594         1.217488        -0.286162
 H         2.557293         1.834797        -0.699606
 H         1.886917         1.281601         3.523815
 H        -0.824656        -0.415325         0.125616
 H         0.007900         0.882490        -0.601950
 H         0.473723        -0.852188        -1.031137
 H         1.334252        -2.238697         1.809922
 H         2.453942        -1.736974         0.488822
 H         3.985272        -0.712118         3.417092
