19
Iteration:  4054
 C         3.050931         1.654239         0.132772
 C         2.404304         0.741109         1.004180
 C         1.923931         0.792350         2.469924
 O         0.510448         0.423700         2.244974
 C         1.044969        -0.067892         0.960527
 C        -0.046998         0.084938        -0.177972
 C         1.802598        -1.458162         1.437970
 C         2.793726        -0.418371         2.016879
 O         4.079045        -0.579697         2.563011
 H         4.032067         1.296575        -0.060618
 H         2.420806         1.834213        -0.711648
 H         3.257940         2.665787         0.698029
 H         2.033378         1.362408         3.397952
 H        -1.067685        -0.440533         0.119762
 H        -0.174011         1.165118        -0.494312
 H         0.361710        -0.400783        -1.191474
 H         1.101392        -2.123208         2.001335
 H         2.113986        -1.842629         0.467447
 H         4.181872        -1.030481         3.424980
