19
Iteration:   403
 C         3.018707         2.069947         0.530185
 C         2.278180         0.924697         1.130763
 C         1.888434         0.609288         2.574567
 O         0.538174         0.215890         2.252850
 C         1.004688        -0.044340         0.848872
 C         0.123999        -0.208947        -0.319201
 C         1.871080        -1.240792         1.186055
 C         2.820522        -0.360272         1.914970
 O         3.921702        -0.719676         2.583490
 H         3.765939         2.299394         1.306624
 H         3.563781         1.833351        -0.464620
 H         2.338621         2.933275         0.485004
 H         1.815524         1.102863         3.554156
 H        -0.524595        -1.138097        -0.236811
 H        -0.316943         0.745532        -0.559109
 H         0.766945        -0.499294        -1.163040
 H         1.409234        -2.036193         1.763001
 H         2.347026        -1.618147         0.210636
 H         4.770303        -0.636729         2.044188
