19
Iteration:   564charge 0 multiplicity 1
 C         2.903741         1.927347         0.391687
 C         2.351983         0.844773         1.145896
 C         1.829006         0.640923         2.582082
 O         0.454928         0.172351         2.262868
 C         1.078782        -0.093692         0.862180
 C         0.183444         0.037777        -0.320585
 C         1.972189        -1.360594         1.191085
 C         2.805109        -0.405748         1.955401
 O         3.942901        -0.546468         2.633217
 H         3.730825         2.446131         0.937693
 H         3.232332         1.629188        -0.548638
 H         2.149737         2.785312         0.181744
 H         2.149842         1.028603         3.489392
 H        -0.637917        -0.688706        -0.338588
 H        -0.054197         1.109417        -0.327075
 H         0.775402        -0.092428        -1.272925
 H         1.305485        -2.001582         1.841600
 H         2.456807        -2.031378         0.440812
 H         4.398636        -1.364655         2.284355
