19
Iteration:  1758charge 0 multiplicity 1
 C         2.983581         1.808000         0.221999
 C         2.373923         0.790458         1.151973
 C         1.877360         0.737829         2.560710
 O         0.401811         0.429518         2.152179
 C         1.132738        -0.162403         0.907257
 C         0.057340        -0.131413        -0.220722
 C         1.866575        -1.336275         1.171238
 C         2.805841        -0.468329         2.117378
 O         4.022403        -0.550014         2.719977
 H         3.931479         2.197251         0.506945
 H         3.163814         1.212982        -0.796924
 H         2.350534         2.589390        -0.034290
 H         1.995106         1.423676         3.317070
 H        -0.323541        -1.163567        -0.344777
 H        -0.730830         0.613739        -0.192295
 H         0.579153        -0.073732        -1.162819
 H         1.364126        -2.217905         1.624787
 H         2.415617        -1.766092         0.384821
 H         4.663180         0.183776         2.549189
