19
Iteration:  4727charge 0 multiplicity 1
 C         3.154476         1.521239         0.206424
 C         2.292247         0.745066         1.189539
 C         1.788998         0.839914         2.555002
 O         0.496958         0.291733         2.215796
 C         1.015144        -0.165146         0.920446
 C         0.006607        -0.024533        -0.337164
 C         1.748463        -1.390813         1.354920
 C         2.798304        -0.307595         2.155067
 O         4.137467        -0.321138         2.466829
 H         3.427700         2.645959         0.273990
 H         4.278381         1.158537         0.254698
 H         2.858713         1.539693        -0.810251
 H         1.912121         1.346343         3.510668
 H        -0.933103        -0.461035        -0.064692
 H        -0.129035         0.969858        -0.604032
 H         0.558399        -0.646384        -1.066144
 H         0.969362        -2.215111         1.768880
 H         2.468506        -1.818933         0.644221
 H         4.153678        -0.730194         3.351337
