19
Iteration:  4896
 C         3.132807         1.563228         0.132753
 C         2.300764         0.807651         1.111363
 C         1.749121         0.729110         2.517397
 O         0.345637         0.423159         2.120404
 C         0.974987        -0.191882         0.999936
 C         0.163447        -0.090997        -0.225400
 C         1.970648        -1.420867         1.427107
 C         2.757719        -0.266875         2.028568
 O         4.059078        -0.395772         2.580983
 H         3.801733         0.921047        -0.432499
 H         2.496577         2.132413        -0.499585
 H         3.780539         2.362448         0.585625
 H         1.831839         1.394541         3.384041
 H        -0.746405        -0.607334        -0.158372
 H        -0.042986         0.911617        -0.240753
 H         0.726672        -0.377782        -1.097009
 H         1.666285        -2.213379         2.150607
 H         2.595838        -1.683174         0.493659
 H         4.178415        -0.895394         3.400849
