19
Iteration:  3158charge 0 multiplicity 1
 C         2.898734         1.708733         0.149088
 C         2.303917         0.816775         1.163217
 C         1.826826         0.794737         2.504013
 O         0.468925         0.435070         2.215314
 C         1.078387        -0.147800         0.916248
 C         0.220928        -0.091522        -0.328876
 C         1.936271        -1.325986         1.422445
 C         2.779200        -0.289400         2.080505
 O         4.076927        -0.716211         2.599150
 H         3.788727         2.104419         0.521607
 H         2.942993         1.340180        -0.917045
 H         2.105745         2.501986        -0.069703
 H         1.945417         1.558551         3.167762
 H        -0.769561        -0.565020        -0.359797
 H        -0.154082         0.945921        -0.399992
 H         0.777924        -0.449443        -1.223860
 H         1.380207        -2.009065         2.006483
 H         2.382890        -1.767133         0.579313
 H         3.710241        -0.823845         3.500751
