19
Iteration:   897
 C         2.870230         1.859041         0.516041
 C         2.262927         0.809813         1.265383
 C         1.690219         0.641966         2.630526
 O         0.358330         0.164156         2.103005
 C         1.140871        -0.034728         0.880102
 C         0.217002         0.055925        -0.286362
 C         2.001939        -1.371324         1.121343
 C         2.839607        -0.441660         2.039465
 O         4.128545        -0.513983         2.579311
 H         3.733641         2.278456         1.012987
 H         3.239448         1.482142        -0.490258
 H         2.024458         2.543755         0.139255
 H         1.747424         1.151898         3.647921
 H        -0.510795        -0.724009        -0.292163
 H        -0.302848         1.026343        -0.188169
 H         0.661046         0.078091        -1.304785
 H         1.508591        -2.355267         1.281471
 H         2.523078        -1.526055         0.209438
 H         4.678456        -0.665997         1.790975
