19
Iteration:   997
 C         2.889821         2.039740         0.563075
 C         2.357565         0.817214         1.228077
 C         1.681197         0.657350         2.585433
 O         0.427865         0.295813         2.085913
 C         1.188534        -0.088389         0.763120
 C         0.070528        -0.180085        -0.244233
 C         1.991063        -1.343443         1.097812
 C         2.824705        -0.336276         2.024927
 O         4.083166        -0.624536         2.631478
 H         3.765513         2.328097         1.187352
 H         3.381371         1.794230        -0.454811
 H         2.228980         2.937220         0.490641
 H         2.007511         1.068422         3.647505
 H        -0.736196        -0.754295         0.096541
 H        -0.332379         0.831539        -0.341459
 H         0.371962        -0.582233        -1.257984
 H         1.525216        -2.287917         1.474811
 H         2.486156        -1.686027         0.235514
 H         4.451884        -1.255641         1.938792
