19
Iteration:  1127charge 0 multiplicity 1
 C         2.937941         1.960599         0.339402
 C         2.277505         0.856305         1.159110
 C         1.824035         0.607160         2.520395
 O         0.442959         0.174626         2.328759
 C         1.067946        -0.099146         0.835840
 C         0.137520        -0.007266        -0.348516
 C         1.986867        -1.316034         1.140116
 C         2.836595        -0.422184         2.041251
 O         3.973521        -0.637118         2.690828
 H         3.725896         2.362188         0.955320
 H         3.356092         1.545766        -0.540989
 H         2.333569         2.794838        -0.054959
 H         2.123724         1.171241         3.377266
 H        -0.391976        -0.962071        -0.506886
 H        -0.583332         0.846502        -0.200405
 H         0.695887         0.189492        -1.345532
 H         1.544891        -2.261068         1.618454
 H         2.554735        -1.456723         0.244543
 H         4.516873         0.127848         2.612840
