19
Iteration:   200
 C         2.945425         2.012283         0.636102
 C         2.344955         0.809560         1.252899
 C         1.733461         0.552322         2.597276
 O         0.536447         0.238612         2.115018
 C         1.214610        -0.090558         0.776485
 C         0.020647        -0.085327        -0.192684
 C         1.991141        -1.332645         0.954725
 C         2.746984        -0.446815         1.944978
 O         4.004257        -0.504544         2.619717
 H         3.762224         2.332525         1.253671
 H         3.285013         1.825189        -0.374301
 H         2.056007         2.794156         0.576931
 H         1.963094         0.927783         3.673064
 H        -0.852134        -0.590266         0.284649
 H        -0.380106         0.907918        -0.239969
 H         0.246019        -0.426042        -1.164116
 H         1.505712        -2.260593         1.268320
 H         2.502174        -1.460064         0.064686
 H         4.664779        -0.898791         1.975761
