19
Iteration:  2850charge 0 multiplicity 1
 C         3.226667         1.679759         0.472963
 C         2.302541         0.785592         1.107871
 C         1.875907         0.743695         2.488019
 O         0.466660         0.476479         2.144809
 C         0.947697        -0.042828         0.895700
 C        -0.024783        -0.245140        -0.227924
 C         1.803068        -1.332341         1.307824
 C         2.770353        -0.421174         1.970134
 O         4.097721        -0.476423         2.466129
 H         3.958971         2.149148         1.118400
 H         3.717013         1.238930        -0.393709
 H         2.524385         2.550193         0.226164
 H         2.126605         1.505260         3.277098
 H        -0.545286        -1.200708         0.090305
 H        -0.596931         0.689676        -0.393827
 H         0.434227        -0.374420        -1.259109
 H         1.366359        -2.121988         2.160825
 H         2.260454        -1.902069         0.486548
 H         4.272354        -0.610318         3.437178
