19
Iteration:  2485
 C         3.235592         1.765527         0.430226
 C         2.318682         0.825418         1.088005
 C         1.832512         0.836877         2.484227
 O         0.450844         0.356760         2.203615
 C         0.997517        -0.114084         0.870474
 C         0.008733        -0.263428        -0.218192
 C         1.790195        -1.324951         1.309673
 C         2.778428        -0.350266         1.939858
 O         4.054177        -0.489486         2.494494
 H         4.043411         1.702251         1.203536
 H         3.733939         1.186505        -0.449016
 H         2.893278         2.739208         0.130820
 H         1.983998         1.331920         3.426606
 H        -0.718782        -1.098383        -0.010290
 H        -0.520220         0.701814        -0.330655
 H         0.523097        -0.491759        -1.231158
 H         1.382656        -1.989892         1.966459
 H         2.358845        -1.779737         0.523805
 H         4.062735        -0.743493         3.450601
