19
Iteration:  1357charge 0 multiplicity 1
 C         2.971609         1.958577         0.328058
 C         2.237786         0.852476         1.103508
 C         1.819305         0.702860         2.533491
 O         0.443502         0.275472         2.199082
 C         1.010278        -0.151386         0.867322
 C         0.192681        -0.089988        -0.319046
 C         1.930877        -1.412966         1.373043
 C         2.842967        -0.295126         2.050752
 O         4.000142        -0.667559         2.625744
 H         3.967363         2.248473         0.785334
 H         3.400021         1.516090        -0.567915
 H         2.375133         2.924037        -0.018340
 H         1.848327         1.528656         3.337912
 H        -0.295490        -1.087754        -0.562130
 H        -0.483226         0.790993        -0.128716
 H         0.822942         0.174346        -1.180903
 H         1.556652        -2.063084         2.267820
 H         2.371095        -1.956755         0.516319
 H         4.631957        -0.655988         1.828359
