19
Iteration:  2398charge 0 multiplicity 1
 C         2.979531         1.747796         0.118498
 C         2.337606         0.822320         1.114864
 C         1.854282         0.711043         2.526688
 O         0.459310         0.334455         2.239811
 C         1.073923        -0.179071         0.862671
 C         0.171255        -0.064794        -0.224758
 C         1.820725        -1.361239         1.321192
 C         2.801818        -0.379017         2.030344
 O         4.027382        -0.463705         2.666004
 H         3.738625         2.253430         0.650377
 H         3.526113         1.335595        -0.672636
 H         2.339631         2.547544        -0.139259
 H         1.974530         1.363673         3.410838
 H        -0.865174        -0.457237        -0.208929
 H         0.068674         1.047422        -0.325121
 H         0.840406        -0.340338        -1.129333
 H         1.304025        -2.140648         2.058732
 H         2.293478        -1.829676         0.452792
 H         3.890332        -1.346383         3.130529
