19
Iteration:  4637
 C         2.997670         1.956919         0.163136
 C         2.415625         0.842693         1.039558
 C         1.893239         0.742950         2.387700
 O         0.542771         0.531455         2.081302
 C         1.087679        -0.190990         0.986049
 C         0.081346        -0.149433        -0.109792
 C         1.820225        -1.474387         1.484840
 C         2.824809        -0.419083         1.961298
 O         3.975112        -0.662523         2.641378
 H         2.284793         2.367473        -0.649514
 H         3.216340         2.780225         0.935159
 H         3.881953         1.521673        -0.305274
 H         2.068975         1.436603         3.210460
 H        -0.678475        -0.983957        -0.137743
 H        -0.558208         0.632714         0.001166
 H         0.485006        -0.191508        -1.139553
 H         1.051656        -1.941549         2.230081
 H         2.092313        -2.111729         0.593848
 H         3.800575        -1.186302         3.450546
