19
Iteration:  1338
 C         2.924965         1.845214         0.321974
 C         2.341276         0.789005         1.185670
 C         1.735185         0.765951         2.526680
 O         0.448318         0.317552         2.142007
 C         1.125355        -0.115213         0.901593
 C         0.126893        -0.079749        -0.286705
 C         1.948946        -1.383105         1.291531
 C         2.788992        -0.304528         2.060893
 O         4.078536        -0.593525         2.615261
 H         3.746758         2.386808         0.918316
 H         3.331080         1.565342        -0.727421
 H         2.096605         2.539827         0.175681
 H         2.004961         1.268635         3.521316
 H        -0.279645        -1.129779        -0.528752
 H        -0.680298         0.657841        -0.158014
 H         0.621170         0.194836        -1.213972
 H         1.388971        -2.193463         1.751760
 H         2.638306        -1.588973         0.410521
 H         4.171573        -1.566660         2.432020
