19
Iteration:  4321charge 0 multiplicity 1
 C         3.384749         1.600459         0.315864
 C         2.295720         0.836840         1.070117
 C         1.847749         0.746824         2.516124
 O         0.445816         0.526180         2.233905
 C         0.995966        -0.106817         0.969419
 C        -0.142023        -0.125395        -0.094384
 C         1.835270        -1.381323         1.351357
 C         2.735276        -0.353497         1.962929
 O         4.072751        -0.533871         2.378172
 H         4.440961         1.179849         0.378257
 H         2.995214         1.446562        -0.763538
 H         3.396705         2.630398         0.584451
 H         2.221347         1.395284         3.320679
 H        -0.898722        -0.997272        -0.026426
 H        -0.603947         0.893818        -0.117933
 H         0.364512        -0.174720        -1.109795
 H         1.308584        -2.153523         1.813368
 H         2.328491        -1.804813         0.479538
 H         4.081478        -0.959103         3.257582
