19
Iteration:  2012charge 0 multiplicity 1
 C         3.035762         1.762751         0.250867
 C         2.331094         0.703825         1.202146
 C         1.671105         0.761726         2.564516
 O         0.369858         0.406598         2.106356
 C         1.066110        -0.138251         0.910873
 C         0.134334        -0.086893        -0.248016
 C         1.926511        -1.397802         1.362256
 C         2.790901        -0.314276         2.126649
 O         4.148018        -0.471563         2.478657
 H         3.936815         2.100534         0.856255
 H         3.391774         1.181902        -0.671685
 H         2.569439         2.746815         0.013489
 H         1.738273         1.210913         3.530500
 H        -0.534083        -0.956415        -0.188217
 H        -0.369177         0.838630        -0.466128
 H         0.821885        -0.240468        -1.105612
 H         1.287687        -2.157614         1.837450
 H         2.548063        -1.923997         0.589404
 H         4.217869        -1.316338         2.922455
