19
Iteration:  3614
 C         2.922536         1.824379         0.160166
 C         2.411177         0.742143         1.055809
 C         1.896845         0.852168         2.418568
 O         0.474757         0.495589         2.103128
 C         1.077233        -0.187769         0.963493
 C         0.129506        -0.158029        -0.218746
 C         1.861596        -1.351253         1.490577
 C         2.780241        -0.386596         2.115883
 O         4.000027        -0.673006         2.593509
 H         3.746267         2.391887         0.611953
 H         3.264453         1.520475        -0.835697
 H         2.206130         2.628359         0.132491
 H         1.988409         1.662522         3.084603
 H        -0.588321        -1.041473        -0.131477
 H        -0.356375         0.772102        -0.416234
 H         0.823692        -0.272183        -1.153737
 H         1.348810        -1.982496         2.259100
 H         2.406662        -1.845278         0.714739
 H         3.983357        -1.088832         3.467438
