19
Iteration:  4966charge 0 multiplicity 1
 C         3.155265         1.678113         0.262597
 C         2.289028         0.767890         1.107871
 C         1.742875         0.832959         2.420205
 O         0.378688         0.422162         2.090034
 C         0.982396        -0.174184         0.934082
 C         0.073271        -0.192348        -0.255327
 C         2.042647        -1.398633         1.516552
 C         2.805319        -0.319923         1.937801
 O         4.044012        -0.455819         2.602502
 H         2.787260         1.669824        -0.810373
 H         3.224930         2.742272         0.625029
 H         4.132456         1.280702         0.236321
 H         1.897837         1.468075         3.290246
 H        -0.806761        -0.882833         0.130318
 H        -0.218084         0.902617        -0.326297
 H         0.587170        -0.738656        -1.106211
 H         1.510853        -1.974240         2.285380
 H         2.543233        -1.897796         0.655510
 H         3.851918        -0.424665         3.556753
