19
Iteration:  2604
 C         3.010445         1.773781         0.168214
 C         2.382903         0.719173         1.157224
 C         1.765671         0.758163         2.551621
 O         0.478839         0.356290         2.162604
 C         0.990697        -0.118916         0.936835
 C         0.112167        -0.011340        -0.266723
 C         1.812199        -1.399562         1.297402
 C         2.786900        -0.349901         2.051268
 O         4.140000        -0.613225         2.610429
 H         3.869731         2.355829         0.667125
 H         3.443098         1.325040        -0.785657
 H         2.288590         2.436259        -0.164334
 H         1.928326         1.310888         3.467544
 H        -0.780222        -0.439041         0.029526
 H        -0.100704         1.011909        -0.367571
 H         0.549240        -0.463813        -1.146836
 H         1.341022        -2.140879         1.916334
 H         2.447257        -1.582167         0.467993
 H         4.149638        -0.239941         3.507721
