19
Iteration:  2560
 C         2.847029         1.868110         0.069595
 C         2.381345         0.793509         1.126135
 C         1.893151         0.784167         2.491156
 O         0.485306         0.351317         2.237392
 C         1.049562        -0.135187         0.967276
 C         0.229960        -0.044824        -0.307247
 C         1.874824        -1.354100         1.388628
 C         2.817565        -0.366336         2.057179
 O         4.013274        -0.712980         2.646878
 H         3.815497         2.416992         0.495479
 H         2.961990         1.341641        -0.953639
 H         2.023862         2.530359         0.108499
 H         2.068442         1.304972         3.414013
 H        -0.726083        -0.479549        -0.334271
 H         0.055482         0.993648        -0.513438
 H         0.859576        -0.452116        -1.126492
 H         1.253667        -1.977276         2.042118
 H         2.195699        -1.620330         0.353158
 H         3.766807        -0.894559         3.569500
