19
Iteration:  3205charge 0 multiplicity 1
 C         2.908794         1.893073         0.209573
 C         2.372233         0.699262         1.102616
 C         1.930898         0.760879         2.463284
 O         0.546329         0.475783         2.177193
 C         1.098315        -0.037418         0.879269
 C         0.087623        -0.173231        -0.326425
 C         1.790957        -1.378634         1.399006
 C         2.816005        -0.388480         2.019430
 O         4.025962        -0.622387         2.685748
 H         3.538548         2.564437         0.877617
 H         3.534559         1.386107        -0.544899
 H         2.161363         2.207000        -0.432111
 H         2.233405         1.390846         3.393242
 H        -0.461771        -1.045476        -0.174795
 H        -0.748978         0.532257        -0.295140
 H         0.479791        -0.391658        -1.233319
 H         1.263200        -1.994822         2.092922
 H         2.348501        -1.926714         0.652030
 H         3.812179        -0.947517         3.605704
