19
Iteration:  2767
 C         2.800225         1.787520         0.092205
 C         2.477741         0.723746         1.143206
 C         1.854472         0.672677         2.501454
 O         0.503514         0.410445         2.200268
 C         1.091269        -0.126882         0.946558
 C         0.202036         0.075808        -0.233958
 C         1.795085        -1.411145         1.284309
 C         2.826258        -0.443527         2.096843
 O         4.006055        -0.542071         2.656023
 H         3.832800         2.346654         0.358810
 H         2.993244         1.366348        -0.862669
 H         2.047288         2.511919        -0.203115
 H         2.074459         1.224388         3.523357
 H        -0.764761        -0.341277        -0.108282
 H        -0.051198         1.076267        -0.514966
 H         0.712233        -0.523695        -1.036810
 H         1.184735        -2.268346         1.801743
 H         2.592976        -1.761397         0.544307
 H         4.031024        -0.935264         3.545114
