19
Iteration:  4549charge 0 multiplicity 1
 C         3.190833         1.511382         0.221825
 C         2.236091         0.802394         1.108469
 C         1.857930         0.795010         2.513203
 O         0.452828         0.329450         2.244046
 C         0.961670        -0.123899         0.936544
 C         0.031854         0.054480        -0.266247
 C         1.860240        -1.440893         1.384010
 C         2.778279        -0.324049         2.054201
 O         4.118120        -0.409681         2.483966
 H         2.763097         1.608393        -0.825441
 H         3.198521         2.600671         0.517946
 H         4.170043         1.022841         0.143570
 H         2.032048         1.338749         3.439676
 H        -0.910084        -0.340519         0.197835
 H         0.060236         1.064806        -0.486073
 H         0.335791        -0.501098        -1.152000
 H         1.106951        -2.096402         2.013116
 H         2.308686        -1.906519         0.442117
 H         4.164574        -0.866170         3.346492
