19
Iteration:  1075charge 0 multiplicity 1
 C         2.956992         1.907006         0.459892
 C         2.308571         0.764947         1.243135
 C         1.702172         0.590429         2.646521
 O         0.405934         0.221296         2.083231
 C         1.066287        -0.120150         0.858323
 C         0.152823        -0.000025        -0.319860
 C         1.952874        -1.334836         1.199915
 C         2.816899        -0.356008         2.107345
 O         4.160043        -0.505070         2.447478
 H         3.746219         2.445826         1.058327
 H         3.337709         1.672218        -0.618944
 H         2.198326         2.644481         0.348917
 H         1.695141         0.975371         3.617851
 H        -0.660221        -0.644859        -0.088553
 H        -0.252870         1.001861        -0.423736
 H         0.525166        -0.316665        -1.287561
 H         1.405468        -2.205911         1.579185
 H         2.656391        -1.536831         0.394930
 H         4.184107        -0.988238         3.289896
