19
Iteration:  1551
 C         3.025299         1.840493         0.259096
 C         2.256817         0.843076         1.100990
 C         1.839666         0.751855         2.532899
 O         0.441945         0.348374         2.252056
 C         1.058232        -0.165286         0.875260
 C         0.156247        -0.105567        -0.305707
 C         1.921390        -1.392287         1.380297
 C         2.739095        -0.354005         2.031603
 O         4.038890        -0.565784         2.645643
 H         3.899915         2.119613         0.810617
 H         3.283464         1.428696        -0.773755
 H         2.373456         2.712967         0.025706
 H         1.989279         1.657177         3.217951
 H        -0.268774        -1.093298        -0.488611
 H        -0.593646         0.701715        -0.373627
 H         0.816160        -0.094277        -1.178572
 H         1.319561        -2.059247         2.036486
 H         2.414227        -1.844407         0.565429
 H         4.475144        -1.140884         2.026407
