19
Iteration:  2906charge 0 multiplicity 1
 C         3.257610         1.660448         0.327558
 C         2.293458         0.821629         1.061848
 C         1.723385         0.793462         2.570113
 O         0.480599         0.329163         2.168729
 C         1.041116        -0.053751         0.789997
 C        -0.026761        -0.156514        -0.189925
 C         1.854739        -1.335298         1.364850
 C         2.759927        -0.256962         2.031620
 O         4.114474        -0.532357         2.518150
 H         4.151579         1.716219         0.848695
 H         3.361039         1.351552        -0.666974
 H         2.683515         2.575737         0.102560
 H         1.858535         1.440591         3.473504
 H        -0.935566        -0.728888         0.078937
 H        -0.449253         0.843019        -0.299189
 H         0.446764        -0.540840        -1.157228
 H         1.351774        -2.228391         2.000752
 H         2.525243        -1.788975         0.588276
 H         4.013251        -1.129841         3.272488
