19
Iteration:   328charge 0 multiplicity 1
 C         2.923935         1.940982         0.305621
 C         2.234010         0.828659         1.177196
 C         1.739782         0.653928         2.601121
 O         0.513060        -0.073760         2.246856
 C         1.093930        -0.195241         0.832833
 C         0.210574         0.270249        -0.226668
 C         1.971300        -1.369222         1.159030
 C         2.761817        -0.356431         1.955351
 O         4.011587        -0.530137         2.681396
 H         3.770312         2.275454         0.864366
 H         3.204044         1.508972        -0.718862
 H         2.291052         2.723380         0.208440
 H         1.906915         1.225623         3.592199
 H        -0.825070        -0.200504        -0.309451
 H         0.195266         1.313292        -0.026991
 H         0.790245         0.153166        -1.139920
 H         1.350593        -2.166476         1.582849
 H         2.524919        -1.819666         0.252012
 H         4.536682        -0.716315         1.911982
