19
Iteration:  3940charge 0 multiplicity 1
 C         3.231942         1.641574         0.317209
 C         2.393936         0.779802         1.072104
 C         1.909977         0.709201         2.432755
 O         0.456435         0.528886         2.214206
 C         0.906994        -0.015706         0.922030
 C        -0.077114        -0.214208        -0.244349
 C         1.717433        -1.388891         1.466600
 C         2.801334        -0.397216         2.033213
 O         4.141828        -0.482268         2.434205
 H         3.058136         1.738928        -0.779608
 H         3.143595         2.617119         0.814273
 H         4.189005         1.366215         0.378252
 H         2.096783         1.284096         3.340155
 H        -0.782333        -1.019107        -0.056411
 H        -0.541895         0.839594        -0.209430
 H         0.478570        -0.090566        -1.259660
 H         1.236084        -1.921287         2.165280
 H         2.168711        -1.974862         0.687926
 H         4.135662        -1.023867         3.253298
