19
Iteration:   357charge 0 multiplicity 1
 C         2.884611         1.879265         0.364031
 C         2.313652         0.803366         1.196417
 C         1.759559         0.544619         2.619443
 O         0.437739         0.127216         2.065138
 C         1.081835        -0.100613         0.806077
 C         0.006960         0.211244        -0.191069
 C         2.138758        -1.362361         1.147835
 C         2.822212        -0.369595         1.990659
 O         4.060077        -0.586491         2.756875
 H         3.852293         2.376338         0.712316
 H         3.128217         1.606485        -0.691864
 H         2.132743         2.789170         0.315511
 H         2.043631         1.044520         3.601277
 H        -0.885557        -0.402765        -0.091349
 H        -0.162165         1.314059        -0.092429
 H         0.312594         0.002058        -1.286147
 H         1.577502        -2.147348         1.652673
 H         2.772839        -1.591909         0.258055
 H         4.537943        -0.999354         1.988865
