19
Iteration:  3398
 C         2.871078         1.875381         0.145747
 C         2.404888         0.826418         1.029193
 C         1.931668         0.738820         2.428828
 O         0.528373         0.528890         2.229261
 C         0.999828        -0.065985         0.922332
 C         0.163555        -0.255640        -0.275724
 C         1.817826        -1.367135         1.356872
 C         2.799464        -0.383271         2.065204
 O         4.030616        -0.739126         2.733342
 H         3.498800         2.510007         0.669614
 H         3.582763         1.470779        -0.616072
 H         2.052510         2.497162        -0.418499
 H         2.209665         1.364768         3.321100
 H        -0.292841        -1.271881        -0.187890
 H        -0.517007         0.447196        -0.507615
 H         0.927026        -0.253569        -1.041950
 H         0.990477        -1.911655         1.971245
 H         2.281024        -1.709530         0.468748
 H         3.836349        -0.276987         3.585998
