19
Iteration:  4484
 C         3.233895         1.643826         0.245159
 C         2.341726         0.801046         1.122686
 C         1.932932         0.784085         2.522679
 O         0.474650         0.455183         2.246559
 C         0.968895        -0.033112         0.921631
 C        -0.033460        -0.207706        -0.218151
 C         1.722961        -1.285449         1.333369
 C         2.803959        -0.364823         2.020704
 O         4.066129        -0.583629         2.488973
 H         3.087368         1.473506        -0.885598
 H         2.858450         2.755194         0.359847
 H         4.249463         1.768056         0.535364
 H         2.240713         1.469513         3.307862
 H        -0.753295        -1.122773        -0.069395
 H        -0.742382         0.577731        -0.458398
 H         0.434972        -0.431446        -1.230374
 H         1.399643        -2.125178         2.068861
 H         2.321988        -1.739917         0.479387
 H         3.968222        -0.690587         3.457102
