19
Iteration:  4569charge 0 multiplicity 1
 C         3.114173         1.659336         0.092088
 C         2.374472         0.768596         1.195201
 C         1.747541         0.663216         2.593616
 O         0.425062         0.462000         2.229805
 C         0.998391        -0.101536         0.976631
 C         0.121876        -0.045986        -0.187473
 C         1.827553        -1.355602         1.384455
 C         2.819298        -0.378395         1.968632
 O         4.046709        -0.505617         2.454656
 H         2.655918         1.697225        -0.897154
 H         3.241030         2.668285         0.405936
 H         4.088256         1.054671        -0.018405
 H         1.965921         1.308011         3.438705
 H        -0.917647        -0.398143        -0.019729
 H         0.279252         0.935896        -0.573238
 H         0.652422        -0.653726        -0.865766
 H         1.579709        -2.120612         2.166172
 H         2.287064        -1.757017         0.429169
 H         3.942597        -0.618911         3.415090
