19
Iteration:  2081charge 0 multiplicity 1
 C         3.099723         1.794102         0.357665
 C         2.392405         0.779395         1.136684
 C         1.748741         0.775717         2.483372
 O         0.447482         0.337910         2.098371
 C         1.068499        -0.245364         0.857185
 C        -0.042758        -0.168578        -0.188354
 C         1.990168        -1.306288         1.281975
 C         2.796848        -0.281007         1.959163
 O         4.044440        -0.592358         2.650005
 H         3.882945         2.440222         0.865030
 H         3.491259         1.218843        -0.438605
 H         2.395080         2.672484        -0.018535
 H         1.772711         1.520031         3.307205
 H        -0.982193        -0.435048         0.284576
 H        -0.044049         0.922402        -0.448165
 H         0.120959        -0.676217        -1.137403
 H         1.352326        -2.052202         1.751315
 H         2.630065        -1.768734         0.478917
 H         4.235911        -0.028091         3.436037
