19
Iteration:  4410
 C         2.860964         1.803827         0.106880
 C         2.392049         0.669825         1.087087
 C         1.944987         0.792876         2.464537
 O         0.559508         0.466335         2.205422
 C         1.086337        -0.076883         0.916257
 C         0.148863         0.018616        -0.204018
 C         1.741825        -1.440633         1.472094
 C         2.782036        -0.467325         2.119778
 O         4.057689        -0.635414         2.565101
 H         3.846572         1.551259        -0.385718
 H         2.184052         2.101928        -0.766447
 H         3.150915         2.668412         0.620409
 H         2.359581         1.530912         3.150105
 H        -0.898847        -0.228024         0.127607
 H         0.114247         1.103818        -0.400922
 H         0.207194        -0.391980        -1.275930
 H         1.023049        -2.008585         1.937073
 H         2.006599        -1.961225         0.592502
 H         4.023778        -1.339813         3.237329
