19
Iteration:  4069charge 0 multiplicity 1
 C         3.186967         1.689743         0.188698
 C         2.342243         0.719674         1.123055
 C         1.835791         0.745419         2.524990
 O         0.471087         0.468082         2.209635
 C         0.927007        -0.137796         0.911604
 C        -0.027630         0.009985        -0.172294
 C         1.742920        -1.324652         1.405615
 C         2.827395        -0.397173         2.007995
 O         4.183971        -0.597968         2.479121
 H         4.202167         1.247694        -0.078940
 H         2.715293         1.738302        -0.841973
 H         3.271145         2.688873         0.488902
 H         2.185119         1.530698         3.177958
 H        -0.908016        -0.492721         0.070266
 H        -0.344042         1.052564        -0.161873
 H         0.284925        -0.366247        -1.053735
 H         1.301107        -2.022284         2.239372
 H         2.252045        -2.035254         0.636853
 H         3.914560        -0.995404         3.334778
