19
Iteration:  3431charge 0 multiplicity 1
 C         2.989447         1.828978         0.171690
 C         2.455311         0.806608         1.113782
 C         1.783771         0.840600         2.428454
 O         0.473525         0.432090         2.154118
 C         1.092685        -0.168707         0.879865
 C         0.087745        -0.164789        -0.198626
 C         1.914088        -1.286096         1.463054
 C         2.777401        -0.293020         2.057288
 O         4.013452        -0.744820         2.581879
 H         3.331809         2.604973         0.752762
 H         3.788635         1.319679        -0.415046
 H         2.069290         2.220702        -0.439220
 H         2.061929         1.486177         3.263129
 H        -0.601897        -1.039444        -0.071986
 H        -0.445146         0.661657        -0.345735
 H         0.597677        -0.359093        -1.133063
 H         1.235664        -2.076602         1.969363
 H         2.431893        -1.956931         0.819551
 H         3.905711        -0.691348         3.545636
