19
Iteration:  2434
 C         3.200326         1.579001         0.360291
 C         2.282033         0.822164         1.199096
 C         1.705914         0.776556         2.540236
 O         0.416116         0.332706         2.123981
 C         1.069226        -0.108782         0.882068
 C         0.007285        -0.094717        -0.188077
 C         1.906852        -1.344685         1.266218
 C         2.786601        -0.336492         2.024154
 O         4.111867        -0.445206         2.485827
 H         3.882758         2.043736         1.014575
 H         3.720854         1.028135        -0.362916
 H         2.523798         2.328280        -0.186535
 H         1.893562         1.549240         3.280639
 H        -0.859452        -0.696503         0.069583
 H        -0.221665         0.932542        -0.379816
 H         0.399159        -0.524210        -1.104710
 H         1.336898        -2.283840         1.784615
 H         2.426670        -1.682846         0.371360
 H         4.316663        -0.479442         3.454047
