19
Iteration:  2062charge 0 multiplicity 1
 C         3.198128         1.830024         0.262684
 C         2.243021         0.845153         1.077874
 C         1.811326         0.741424         2.476988
 O         0.454452         0.272160         2.201882
 C         1.012718        -0.065769         0.866697
 C         0.022446        -0.132898        -0.236447
 C         1.964038        -1.435407         1.294584
 C         2.711175        -0.368390         2.085703
 O         4.046982        -0.511546         2.590499
 H         3.813576         2.243614         1.011351
 H         3.798559         1.376398        -0.541315
 H         2.681855         2.724417        -0.114537
 H         1.796720         1.353296         3.498285
 H        -0.928005        -0.561740         0.155410
 H        -0.080788         0.846820        -0.713284
 H         0.391073        -0.881321        -0.978147
 H         1.801885        -2.379576         1.854680
 H         2.399062        -1.790129         0.392585
 H         4.111724        -0.145533         3.527117
