19
Iteration:  3003
 C         2.957137         1.812211         0.267409
 C         2.332546         0.742936         1.057287
 C         1.857284         0.753072         2.433061
 O         0.490471         0.477228         2.160610
 C         1.131151        -0.164303         0.880272
 C         0.198988        -0.073214        -0.225489
 C         1.837000        -1.390418         1.472053
 C         2.765695        -0.348059         2.067536
 O         4.018185        -0.651839         2.561090
 H         3.575032         2.529908         0.775852
 H         3.419846         1.345596        -0.797187
 H         1.989402         2.379907        -0.161738
 H         1.983937         1.618603         3.135482
 H        -0.590700        -0.822555        -0.106530
 H        -0.323069         0.851732        -0.187806
 H         0.627140        -0.195779        -1.257255
 H         1.279473        -2.148163         2.119364
 H         2.505923        -1.854213         0.757917
 H         3.810495        -0.970935         3.457858
