19
Iteration:   902
 C         2.863891         1.902624         0.491994
 C         2.253599         0.786586         1.311182
 C         1.667196         0.619065         2.619503
 O         0.330821         0.192669         2.125161
 C         1.162387        -0.083913         0.839034
 C         0.245395         0.067437        -0.272524
 C         2.009880        -1.365468         1.127947
 C         2.814733        -0.463527         2.035537
 O         4.146613        -0.528545         2.578282
 H         3.771882         2.403209         0.892759
 H         3.238679         1.340916        -0.415923
 H         2.149348         2.598517         0.132971
 H         1.855445         1.309567         3.498383
 H        -0.564123        -0.719764        -0.388046
 H        -0.330062         0.967313        -0.015638
 H         0.670674         0.121597        -1.272845
 H         1.465536        -2.300476         1.290036
 H         2.562749        -1.561933         0.146300
 H         4.700303        -0.421001         1.768064
