19
Iteration:  1913charge 0 multiplicity 1
 C         2.987757         1.917017         0.225285
 C         2.354402         0.844705         1.108596
 C         1.732098         0.720931         2.442349
 O         0.442350         0.280855         2.109770
 C         1.074173        -0.146540         0.894665
 C         0.045871        -0.090528        -0.186440
 C         1.994815        -1.351690         1.303654
 C         2.776021        -0.316096         2.138300
 O         4.048883        -0.725147         2.653209
 H         3.859404         2.386130         0.730247
 H         3.441112         1.340146        -0.662719
 H         2.364743         2.784069         0.021023
 H         2.030630         1.698650         3.019711
 H        -0.823167        -0.597923         0.277217
 H        -0.262505         0.838129        -0.571306
 H         0.454384        -0.561559        -1.101443
 H         1.729884        -2.178725         1.953852
 H         2.660481        -1.564519         0.487814
 H         4.465408        -0.055813         3.232811
