19
Iteration:   505charge 0 multiplicity 1
 C         2.984844         1.946938         0.245142
 C         2.237805         0.904021         1.198443
 C         1.770405         0.618942         2.592214
 O         0.504043         0.092580         2.243269
 C         1.115689        -0.043485         0.861101
 C         0.137936         0.038636        -0.211730
 C         2.024838        -1.347650         1.103794
 C         2.814397        -0.332454         1.981097
 O         3.882885        -0.659464         2.711576
 H         3.931536         2.098844         0.757075
 H         3.401813         1.369260        -0.671258
 H         2.594890         2.839471        -0.099775
 H         1.971028         1.123989         3.617826
 H        -0.782767        -0.475461         0.029211
 H        -0.258000         1.086637        -0.227666
 H         0.552020        -0.197748        -1.194354
 H         1.520876        -2.279955         1.558750
 H         2.511587        -1.563585         0.158173
 H         4.693866        -0.435337         2.276705
