19
Iteration:  1439charge 0 multiplicity 1
 C         3.081453         1.903271         0.326038
 C         2.312653         0.847476         1.071901
 C         1.775732         0.727854         2.539283
 O         0.479569         0.167236         2.185291
 C         1.108093        -0.115023         0.880653
 C         0.033079        -0.145734        -0.233313
 C         1.931399        -1.325107         1.278752
 C         2.812075        -0.283026         2.038028
 O         4.002761        -0.536177         2.658047
 H         3.942537         2.269406         0.912906
 H         3.439049         1.379342        -0.706824
 H         2.559439         2.781735         0.068529
 H         1.706945         1.561614         3.238567
 H        -0.962349        -0.172889         0.197905
 H         0.027226         0.833671        -0.745470
 H         0.219280        -0.859310        -1.081916
 H         1.389147        -2.007978         1.898857
 H         2.539418        -1.878627         0.526734
 H         4.136342        -1.394712         2.101053
