19
Iteration:  3718charge 0 multiplicity 1
 C         3.269226         1.611057         0.230723
 C         2.369982         0.778033         1.082592
 C         1.712650         0.808510         2.479960
 O         0.453252         0.326163         2.130099
 C         1.132084        -0.148987         0.900063
 C        -0.077368        -0.093273        -0.128131
 C         1.889632        -1.348009         1.410010
 C         2.697432        -0.322953         2.102426
 O         4.026024        -0.432885         2.466870
 H         3.470609         2.592185         0.574901
 H         4.267235         1.206001         0.246007
 H         3.079669         1.599547        -0.849731
 H         2.081123         1.477025         3.190089
 H        -1.095046        -0.568662         0.157166
 H        -0.258630         1.089510        -0.022922
 H         0.309637        -0.397459        -1.078453
 H         1.314683        -2.057703         1.921473
 H         2.436224        -1.982607         0.683650
 H         4.165048        -0.731188         3.398053
