19
Iteration:  2361charge 0 multiplicity 1
 C         2.780602         1.876643         0.148144
 C         2.427903         0.717983         1.113434
 C         1.852953         0.770964         2.595538
 O         0.475781         0.476595         2.142882
 C         1.124833        -0.163532         0.931820
 C         0.188306        -0.116251        -0.350454
 C         1.893360        -1.355959         1.400118
 C         2.755270        -0.324937         2.112396
 O         4.062524        -0.705723         2.621251
 H         3.777992         2.327089         0.580086
 H         2.868439         1.378178        -0.884989
 H         2.045210         2.609811        -0.033682
 H         2.062938         1.518636         3.346143
 H        -0.645113        -0.856120        -0.458191
 H        -0.131921         0.964901        -0.257993
 H         0.641366        -0.176968        -1.353331
 H         1.386681        -2.054727         1.976836
 H         2.547762        -1.878340         0.632813
 H         3.927616        -1.099095         3.528209
