19
Iteration:   786
 C         2.894566         2.054258         0.578768
 C         2.347994         0.805629         1.180528
 C         1.800542         0.623366         2.558992
 O         0.427752         0.231142         2.173427
 C         1.109734        -0.086575         0.828142
 C         0.178620        -0.072248        -0.384389
 C         1.944970        -1.344364         1.261224
 C         2.835189        -0.331520         1.957825
 O         4.007019        -0.720336         2.530956
 H         3.723497         2.517322         1.134356
 H         3.320088         1.970177        -0.394294
 H         1.952719         2.799611         0.465920
 H         2.163630         1.049045         3.452130
 H        -0.557115        -0.921853        -0.185678
 H        -0.526302         0.774567        -0.436446
 H         0.700431        -0.376393        -1.261261
 H         1.558058        -2.117599         1.927036
 H         2.202363        -1.862937         0.319789
 H         4.533797         0.126357         2.644183
