19
Iteration:  1082
 C         2.971214         1.868637         0.470253
 C         2.272717         0.846874         1.232569
 C         1.679128         0.589219         2.617960
 O         0.413155         0.206261         2.130800
 C         1.143121        -0.080630         0.835699
 C         0.171701        -0.006049        -0.335274
 C         1.990944        -1.350220         1.223222
 C         2.740443        -0.378112         2.071149
 O         4.158872        -0.497705         2.475754
 H         3.723381         2.432931         0.940086
 H         3.178110         1.609249        -0.518784
 H         2.083280         2.548681         0.208909
 H         1.943993         1.037698         3.654393
 H        -0.656253        -0.740268        -0.089773
 H        -0.249334         1.036398        -0.239487
 H         0.439182        -0.211850        -1.451973
 H         1.464585        -2.199186         1.809671
 H         2.599604        -1.487258         0.330684
 H         4.062115        -1.314448         2.972296
