19
Iteration:  3755
 C         3.145591         1.734776         0.230533
 C         2.351953         0.730884         1.106190
 C         1.884593         0.792763         2.477694
 O         0.470014         0.512530         2.249359
 C         0.940236        -0.048872         0.937441
 C         0.020670        -0.276357        -0.242425
 C         1.826596        -1.267573         1.370019
 C         2.815328        -0.402640         2.003617
 O         4.066378        -0.588671         2.554429
 H         2.931896         2.857088         0.230781
 H         4.162755         1.392518         0.472007
 H         2.921928         1.436050        -0.774725
 H         2.029895         1.484720         3.379968
 H        -0.597058        -1.073393        -0.228151
 H        -0.473081         0.551362        -0.528693
 H         0.660876        -0.391692        -1.143626
 H         1.092544        -1.920216         1.878858
 H         2.331281        -1.669052         0.458816
 H         3.906226        -0.671197         3.510621
