19
Iteration:  1258
 C         3.002593         1.873651         0.407690
 C         2.293505         0.756783         1.130690
 C         1.688252         0.695015         2.576465
 O         0.452692         0.218733         2.151157
 C         1.103422        -0.097772         0.857122
 C         0.088347        -0.051234        -0.311804
 C         1.992311        -1.363503         1.248714
 C         2.789102        -0.332259         2.100590
 O         4.087441        -0.485906         2.570252
 H         3.871657         2.241130         1.018728
 H         3.557047         1.650409        -0.506273
 H         2.345086         2.881213         0.194173
 H         1.792786         1.281802         3.450235
 H        -0.796051        -0.533598         0.176236
 H        -0.209957         1.023062        -0.529622
 H         0.338564        -0.609436        -1.274656
 H         1.434237        -2.294190         1.733701
 H         2.662051        -1.739880         0.474963
 H         4.239391        -1.466159         2.319860
