19
Iteration:  2096
 C         3.016489         1.844523         0.290304
 C         2.355302         0.802992         1.066110
 C         1.761158         0.761281         2.478379
 O         0.490372         0.344997         2.031311
 C         1.133534        -0.091890         0.820896
 C        -0.013277        -0.146761        -0.174108
 C         1.975548        -1.373987         1.330952
 C         2.798862        -0.348250         2.119969
 O         4.034175        -0.647221         2.654692
 H         3.715285         2.246015         0.956226
 H         3.560668         1.604989        -0.673131
 H         2.304770         2.607731         0.079421
 H         1.926566         1.336955         3.501119
 H        -0.856516        -0.639354         0.406966
 H        -0.473815         0.790996        -0.519705
 H         0.248906        -0.744114        -1.077666
 H         1.523744        -2.108338         2.034091
 H         2.476931        -1.752634         0.478988
 H         4.220552         0.039040         3.350168
