19
Iteration:  2777charge 0 multiplicity 1
 C         2.832726         1.785954         0.084378
 C         2.391210         0.719786         1.122297
 C         1.888999         0.722140         2.530546
 O         0.507262         0.379267         2.182724
 C         1.071541        -0.058434         0.936613
 C         0.144913         0.078917        -0.264894
 C         1.897987        -1.434369         1.343791
 C         2.747844        -0.431071         2.105001
 O         4.061677        -0.583043         2.688132
 H         3.746807         2.526716         0.269109
 H         3.067130         1.185744        -0.758928
 H         1.926068         2.441055        -0.069281
 H         2.185637         1.397249         3.416321
 H        -0.788212        -0.468762        -0.137892
 H         0.064911         1.104378        -0.622750
 H         0.742210        -0.443738        -1.097649
 H         1.284915        -2.241639         1.655140
 H         2.321054        -1.719167         0.367116
 H         4.016236        -1.188886         3.472015
