19
Iteration:  3551charge 0 multiplicity 1
 C         3.142793         1.737188         0.146642
 C         2.326347         0.818791         1.160787
 C         1.754977         0.842016         2.478833
 O         0.468483         0.407395         2.174026
 C         1.066609        -0.206491         0.891230
 C         0.104379        -0.179780        -0.219655
 C         1.886760        -1.349932         1.385171
 C         2.755491        -0.325349         2.067832
 O         4.009985        -0.546557         2.561767
 H         4.129091         1.551590         0.383071
 H         2.938109         1.592930        -0.936654
 H         2.974137         2.856078         0.488204
 H         2.004429         1.481317         3.291410
 H        -0.629898        -1.045659         0.162284
 H        -0.470737         0.718842        -0.241760
 H         0.529563        -0.418435        -1.241803
 H         1.259329        -2.125880         1.862444
 H         2.399390        -1.954636         0.711462
 H         4.129026        -0.534992         3.525605
