19
Iteration:  3250
 C         3.246436         1.717543         0.286217
 C         2.347140         0.802660         1.112636
 C         1.769511         0.851278         2.438706
 O         0.424443         0.331385         2.151819
 C         1.051781        -0.149405         0.868206
 C        -0.001198        -0.140977        -0.197412
 C         1.905506        -1.429814         1.406121
 C         2.735816        -0.304851         2.069942
 O         4.024916        -0.502928         2.494832
 H         3.879659         2.152366         1.134779
 H         3.843975         1.326064        -0.519766
 H         2.659627         2.464170        -0.103399
 H         1.839788         1.558043         3.295986
 H        -0.788030        -0.756914         0.066675
 H        -0.374034         0.867253        -0.246239
 H         0.394096        -0.508060        -1.064822
 H         1.369970        -2.157612         1.988557
 H         2.403195        -1.904513         0.556048
 H         4.286099        -0.524679         3.434684
