19
Iteration:  2970
 C         2.900445         1.788640         0.131344
 C         2.336287         0.795136         1.084738
 C         1.855693         0.740454         2.482905
 O         0.494694         0.346972         2.206196
 C         1.049557        -0.124251         0.896105
 C         0.194461         0.069257        -0.315882
 C         1.793424        -1.418440         1.442198
 C         2.824073        -0.393774         2.055437
 O         4.124032        -0.634068         2.692887
 H         3.748808         2.443241         0.325428
 H         3.063997         1.251329        -0.984937
 H         1.956399         2.466426        -0.129429
 H         1.786024         1.592300         3.227066
 H        -0.760449        -0.437815        -0.161997
 H         0.073204         1.112587        -0.535972
 H         0.747877        -0.439728        -1.142974
 H         1.206327        -2.177451         2.134846
 H         2.362017        -1.967755         0.680816
 H         3.845855        -0.810595         3.596122
