19
Iteration:   554charge 0 multiplicity 1
 C         2.913864         1.911451         0.307914
 C         2.276813         0.778884         1.239391
 C         1.768619         0.602516         2.601757
 O         0.454056         0.264573         2.179126
 C         1.090936        -0.099473         0.878134
 C         0.193538         0.079985        -0.254161
 C         2.001483        -1.374739         1.098096
 C         2.791320        -0.396041         1.967100
 O         4.026847        -0.565368         2.699716
 H         3.772577         2.456331         0.765115
 H         3.159818         1.599322        -0.644648
 H         2.019581         2.673957         0.193324
 H         1.971018         0.974837         3.533404
 H        -0.714194        -0.544782        -0.063131
 H        -0.340762         1.027655        -0.254976
 H         0.664468        -0.119282        -1.235528
 H         1.432912        -2.200972         1.566170
 H         2.735660        -1.775125         0.327771
 H         4.532041        -1.384851         2.411290
