19
Iteration:   546
 C         2.861837         1.886659         0.302036
 C         2.342952         0.849455         1.219475
 C         1.745756         0.562963         2.620246
 O         0.444378         0.287085         2.116046
 C         1.120640        -0.099615         0.881050
 C         0.131991         0.115902        -0.229478
 C         2.002403        -1.402218         1.094071
 C         2.806193        -0.421500         2.032042
 O         4.066320        -0.572974         2.736333
 H         3.784957         2.314951         0.683143
 H         3.167713         1.399009        -0.672783
 H         2.075705         2.655415         0.131904
 H         1.747951         1.102788         3.570383
 H        -0.653412        -0.698540        -0.070512
 H        -0.295628         1.115834        -0.237397
 H         0.529655        -0.189885        -1.161584
 H         1.716597        -2.386611         1.391227
 H         2.454917        -1.338643         0.072207
 H         4.527245        -1.373531         2.344547
