19
Iteration:  1402
 C         2.960166         1.844492         0.390329
 C         2.305364         0.784208         1.178614
 C         1.799848         0.606567         2.624290
 O         0.441682         0.446135         2.104357
 C         1.031047        -0.144193         0.847950
 C         0.142055        -0.155020        -0.253972
 C         1.920548        -1.383224         1.271351
 C         2.817619        -0.398854         2.013261
 O         4.078071        -0.519558         2.519975
 H         3.964139         2.148097         0.837182
 H         3.309165         1.544603        -0.582892
 H         2.244905         2.723902         0.329133
 H         2.036080         1.435349         3.355849
 H        -0.807784        -0.748075         0.034606
 H        -0.047294         0.912690        -0.480530
 H         0.572058        -0.690973        -1.094230
 H         1.301410        -2.230982         1.662236
 H         2.505477        -1.677568         0.333122
 H         4.252377        -0.165080         3.460776
