19
Iteration:   817charge 0 multiplicity 1
 C         2.909706         2.145682         0.591271
 C         2.344941         0.795356         1.217473
 C         1.742193         0.657774         2.545985
 O         0.467492         0.363853         2.060325
 C         1.155765        -0.130871         0.777212
 C        -0.005773        -0.139332        -0.300373
 C         2.006045        -1.442924         1.088232
 C         2.765034        -0.431308         2.082074
 O         4.102392        -0.691051         2.644298
 H         3.709392         2.543016         1.257249
 H         3.214204         2.018449        -0.411486
 H         2.146145         3.076496         0.702034
 H         2.082637         1.096093         3.488506
 H        -0.600442        -0.927772         0.329884
 H        -0.540683         0.813211        -0.434413
 H         0.359900        -0.573754        -1.230634
 H         1.510365        -2.254357         1.623384
 H         2.635655        -1.598311         0.150433
 H         4.717498        -0.492431         1.939286
