19
Iteration:  3236charge 0 multiplicity 1
 C         3.168186         1.861659         0.309726
 C         2.409479         0.727514         1.013972
 C         1.792054         0.827203         2.419790
 O         0.474445         0.403914         2.159506
 C         0.990711        -0.247635         0.977123
 C         0.072824        -0.171186        -0.188502
 C         1.813793        -1.393470         1.381305
 C         2.760944        -0.373677         2.021244
 O         4.033383        -0.524848         2.559249
 H         3.898641         2.453231         0.902915
 H         3.876189         1.280991        -0.375035
 H         2.530173         2.526590        -0.367088
 H         2.065769         1.536881         3.281939
 H        -0.792849        -0.897727        -0.067224
 H        -0.437842         0.861352        -0.211365
 H         0.513280        -0.237963        -1.204881
 H         1.375293        -2.160143         1.975274
 H         2.404088        -1.741433         0.590299
 H         3.713572        -0.526406         3.466043
