19
Iteration:  1358charge 0 multiplicity 1
 C         2.975248         1.963378         0.327537
 C         2.236385         0.851446         1.104996
 C         1.820206         0.696772         2.533922
 O         0.446943         0.274165         2.203111
 C         1.017658        -0.159892         0.872631
 C         0.192209        -0.092540        -0.322294
 C         1.914804        -1.412977         1.374500
 C         2.837335        -0.283043         2.042676
 O         4.003324        -0.669885         2.628870
 H         3.985770         2.261211         0.808788
 H         3.400618         1.516373        -0.615106
 H         2.385541         2.915715        -0.011959
 H         1.866299         1.530222         3.345255
 H        -0.323643        -1.096519        -0.590369
 H        -0.468223         0.796830        -0.145694
 H         0.829586         0.166269        -1.173202
 H         1.532740        -2.051487         2.251395
 H         2.373129        -1.960773         0.503043
 H         4.646743        -0.585618         1.829669
