19
Iteration:  3764charge 0 multiplicity 1
 C         3.082654         1.750599         0.220375
 C         2.362068         0.807218         1.083499
 C         1.930449         0.731877         2.492824
 O         0.465816         0.562301         2.252717
 C         0.967889        -0.050814         0.908624
 C         0.099391        -0.254595        -0.269233
 C         1.734082        -1.326319         1.358129
 C         2.781385        -0.379795         2.034896
 O         4.077159        -0.619316         2.564882
 H         2.765159         2.831924         0.190950
 H         4.167596         1.820569         0.314511
 H         2.989446         1.347230        -0.718678
 H         2.063595         1.441745         3.309796
 H        -0.411715        -1.158453         0.060094
 H        -0.651639         0.579678        -0.385103
 H         0.817544        -0.573299        -1.055254
 H         1.281683        -2.074317         1.917557
 H         2.185638        -1.951010         0.521879
 H         3.977787        -0.752486         3.523832
