19
Iteration:  4259
 C         3.059249         1.760177         0.249615
 C         2.377645         0.761248         1.057160
 C         1.898687         0.774997         2.501506
 O         0.493970         0.547469         2.198021
 C         0.959399        -0.056825         0.977241
 C         0.022840        -0.011432        -0.131860
 C         1.821780        -1.398135         1.484118
 C         2.834745        -0.364422         1.948417
 O         4.068795        -0.794403         2.411452
 H         3.834874         2.344685         0.687189
 H         3.541116         1.210960        -0.538536
 H         2.332208         2.357681        -0.285027
 H         2.050117         1.437186         3.366755
 H        -0.713204        -0.696422         0.007377
 H        -0.428653         0.891899        -0.317766
 H         0.611325        -0.371274        -0.997120
 H         1.272393        -2.189740         2.106373
 H         2.192304        -1.760425         0.516947
 H         3.982722        -0.931808         3.373592
