19
Iteration:    55
 C         3.035297         2.272677         0.631748
 C         2.272285         1.029229         1.128221
 C         1.804626         0.675208         2.527163
 O         0.500875         0.134100         2.160536
 C         0.973734        -0.047501         0.852119
 C        -0.077061        -0.210781        -0.278916
 C         2.086286        -1.365622         1.089502
 C         2.869197        -0.344414         1.905699
 O         4.002785        -0.892476         2.616738
 H         3.765242         2.483370         1.433891
 H         3.607891         1.988635        -0.297385
 H         2.446445         3.131398         0.438428
 H         1.966544         1.043454         3.489752
 H        -0.086582        -1.252298        -0.491585
 H        -1.026563         0.263199        -0.121961
 H         0.326553         0.244977        -1.196480
 H         1.528003        -2.081253         1.539650
 H         2.630118        -1.682763         0.232610
 H         4.574703        -0.200365         2.977897
