19
Iteration:  1728charge 0 multiplicity 1
 C         3.023043         1.791797         0.212114
 C         2.271599         0.827101         1.079972
 C         1.788597         0.752839         2.513059
 O         0.410375         0.352426         2.267343
 C         1.141167        -0.207840         0.848581
 C         0.115314        -0.106406        -0.296607
 C         1.941169        -1.337232         1.390824
 C         2.816227        -0.269601         2.051130
 O         4.006437        -0.629578         2.552555
 H         3.925629         2.112740         0.799138
 H         3.388051         1.311181        -0.637107
 H         2.479667         2.744239        -0.036647
 H         2.009458         1.160524         3.516929
 H        -0.623989        -0.973781        -0.362190
 H        -0.464053         0.802069        -0.201329
 H         0.618749         0.040808        -1.274722
 H         1.455786        -2.034610         2.124415
 H         2.469864        -2.046277         0.722036
 H         4.269846        -0.166363         3.350535
