19
Iteration:  4436
 C         2.909465         1.812809         0.196378
 C         2.432310         0.687650         1.085414
 C         1.869793         0.793289         2.474680
 O         0.511427         0.543945         2.148396
 C         0.986835        -0.050994         0.971718
 C         0.019508        -0.085443        -0.260279
 C         1.850435        -1.329528         1.512243
 C         2.924957        -0.378256         2.018442
 O         4.093542        -0.798718         2.546438
 H         3.601516         1.392203        -0.507146
 H         2.164201         2.222433        -0.406524
 H         3.476799         2.694874         0.723495
 H         2.049699         1.490083         3.304260
 H        -0.849177        -0.647806        -0.193228
 H        -0.316808         0.955078        -0.461440
 H         0.479476        -0.336392        -1.164400
 H         1.245417        -1.897343         2.315242
 H         2.085688        -1.998362         0.634339
 H         3.842587        -1.265986         3.364130
