19
Iteration:  4439
 C         2.927759         1.818257         0.192052
 C         2.432919         0.711121         1.097240
 C         1.878411         0.800440         2.483572
 O         0.500160         0.543609         2.148382
 C         0.981551        -0.054291         0.956839
 C         0.036726        -0.098245        -0.257805
 C         1.872171        -1.323833         1.522597
 C         2.900554        -0.390042         2.005651
 O         4.080434        -0.802157         2.536199
 H         3.605829         1.304809        -0.523364
 H         2.120367         2.332656        -0.400122
 H         3.463383         2.620277         0.774186
 H         2.136349         1.520196         3.252492
 H        -0.920365        -0.729913        -0.097552
 H        -0.342611         0.931172        -0.332536
 H         0.584112        -0.365878        -1.166012
 H         1.232846        -1.929233         2.283192
 H         2.027651        -1.947488         0.590103
 H         3.820365        -1.233284         3.372582
