19
Iteration:  4912charge 0 multiplicity 1
 C         3.109561         1.500229         0.147146
 C         2.243070         0.771198         1.195965
 C         1.703272         0.767763         2.617657
 O         0.403955         0.434362         2.214814
 C         1.076592        -0.167735         0.891200
 C         0.172848        -0.125343        -0.306562
 C         1.942897        -1.364949         1.339550
 C         2.759302        -0.318797         2.067782
 O         4.079075        -0.285571         2.567975
 H         3.370025         0.715452        -0.639370
 H         2.647448         2.292532        -0.544620
 H         3.974437         1.761215         0.711045
 H         1.954209         1.341044         3.507835
 H        -0.876129        -0.635690        -0.076729
 H        -0.048254         0.987752        -0.604258
 H         0.680122        -0.693504        -1.188247
 H         1.425266        -2.203381         1.789116
 H         2.336211        -1.836094         0.482705
 H         4.081944        -0.913008         3.321514
