19
Iteration:  3257charge 0 multiplicity 1
 C         3.260664         1.655797         0.332853
 C         2.276662         0.809852         1.070813
 C         1.708699         0.808621         2.508380
 O         0.449851         0.335050         2.135062
 C         1.103613        -0.135392         0.852951
 C        -0.017026        -0.132472        -0.188210
 C         1.903136        -1.382648         1.371203
 C         2.753002        -0.290036         2.117932
 O         4.059445        -0.489542         2.468323
 H         4.038395         2.035955         1.015055
 H         3.801953         1.190157        -0.569059
 H         2.568197         2.493295        -0.109110
 H         1.908255         1.571354         3.339586
 H        -0.954790        -0.765142         0.124658
 H        -0.455581         0.894906        -0.553815
 H         0.380724        -0.569013        -1.185750
 H         1.425725        -2.027676         2.120331
 H         2.466212        -1.903241         0.619716
 H         4.173188        -0.523687         3.456444
