19
Iteration:  3292
 C         3.315672         1.565318         0.260095
 C         2.292211         0.799642         1.179657
 C         1.684539         0.770175         2.585418
 O         0.403859         0.364221         2.233089
 C         1.002090        -0.097343         0.942319
 C         0.078536        -0.161073        -0.231272
 C         1.924302        -1.360556         1.222557
 C         2.666508        -0.359297         2.051062
 O         4.074512        -0.303819         2.480648
 H         4.451363         1.639706         0.576951
 H         3.287483         1.004721        -0.718650
 H         3.076113         2.595635         0.037488
 H         1.915135         1.372993         3.530304
 H        -0.909749        -0.540954         0.106344
 H         0.010999         0.814560        -0.888647
 H         0.488527        -0.982558        -0.786541
 H         1.478158        -2.153293         1.739399
 H         2.325349        -1.736384         0.327421
 H         4.016404        -0.921179         3.250649
