19
Iteration:  2702charge 0 multiplicity 1
 C         3.198518         1.787085         0.364630
 C         2.359332         0.824549         1.157193
 C         1.807997         0.827603         2.449283
 O         0.449866         0.357342         2.163848
 C         1.047076        -0.094658         0.905969
 C         0.050165        -0.187917        -0.159342
 C         1.831594        -1.361419         1.326760
 C         2.696632        -0.339655         2.024141
 O         4.034011        -0.572028         2.419506
 H         4.165936         1.890559         0.927518
 H         3.467937         1.274807        -0.522292
 H         2.859002         2.741234         0.200411
 H         1.898645         1.569364         3.300057
 H        -0.544924        -1.004052         0.124400
 H        -0.578624         0.667293        -0.243263
 H         0.568218        -0.445626        -1.074599
 H         1.292013        -2.244951         1.929436
 H         2.537299        -1.780929         0.538366
 H         4.059723        -0.767450         3.363653
