19
Iteration:   990
 C         2.906685         2.006081         0.575220
 C         2.306239         0.806111         1.208983
 C         1.710713         0.587478         2.594201
 O         0.458456         0.331292         2.062783
 C         1.126766        -0.056961         0.783788
 C         0.073126        -0.162176        -0.225796
 C         2.076202        -1.308369         1.121069
 C         2.824143        -0.394896         2.025852
 O         4.049008        -0.600977         2.600372
 H         3.762805         2.423363         1.146197
 H         3.225352         1.880175        -0.470464
 H         2.119952         2.703531         0.412708
 H         1.775966         1.189022         3.425213
 H        -0.728980        -0.881766         0.088208
 H        -0.294153         0.861116        -0.310453
 H         0.534192        -0.430001        -1.133320
 H         1.507688        -2.119828         1.526022
 H         2.690433        -1.631977         0.212027
 H         4.369566        -1.478722         2.205876
