19
Iteration:  3508charge 0 multiplicity 1
 C         3.246118         1.531297         0.279012
 C         2.281766         0.819892         1.147931
 C         1.751893         0.789357         2.565691
 O         0.388757         0.346690         2.253374
 C         1.030214        -0.129863         0.852170
 C         0.031572        -0.154799        -0.292626
 C         1.901691        -1.336089         1.293599
 C         2.742991        -0.334461         2.091933
 O         4.135447        -0.347947         2.500823
 H         4.234009         1.350122         0.615490
 H         3.103167         1.027492        -0.735307
 H         2.926591         2.656847        -0.007657
 H         1.816955         1.386600         3.433728
 H        -1.054592        -0.360528        -0.084506
 H         0.031541         0.852256        -0.524879
 H         0.331149        -0.753715        -1.149731
 H         1.261206        -2.080278         1.946644
 H         2.299348        -1.868965         0.436342
 H         4.196110        -0.477048         3.461832
