19
Iteration:  3924
 C         3.341608         1.697551         0.301288
 C         2.337853         0.683995         1.096322
 C         1.827742         0.800259         2.556466
 O         0.499038         0.471948         2.154575
 C         1.012888        -0.135248         0.915745
 C        -0.078473        -0.114242        -0.157020
 C         1.759358        -1.362826         1.435987
 C         2.678944        -0.357321         1.996086
 O         4.099049        -0.462812         2.399606
 H         3.019539         1.778956        -0.739279
 H         3.397350         2.740818         0.665667
 H         4.425450         1.176575         0.327994
 H         2.104152         1.518891         3.325054
 H        -0.619421        -1.068132         0.018836
 H        -0.804575         0.653711        -0.233566
 H         0.290999        -0.337607        -1.113222
 H         1.065631        -2.086979         2.089751
 H         2.066797        -2.080398         0.613754
 H         4.293767        -1.047791         3.143298
