19
Iteration:  1869
 C         3.072736         1.886582         0.348080
 C         2.324524         0.787354         1.090018
 C         1.841228         0.696523         2.517743
 O         0.422083         0.328466         2.195338
 C         1.010746        -0.067869         0.931215
 C         0.112953        -0.158087        -0.263558
 C         1.908495        -1.407709         1.285451
 C         2.767742        -0.406083         2.018617
 O         4.063140        -0.549089         2.572673
 H         3.797697         2.582873         0.776738
 H         3.471683         1.379247        -0.577180
 H         2.247924         2.540167         0.070897
 H         1.907844         1.426410         3.431932
 H        -0.924070        -0.368628         0.064803
 H         0.137168         0.631405        -0.954492
 H         0.554702        -0.935269        -0.891778
 H         1.279311        -2.134444         1.787732
 H         2.392159        -1.842844         0.424352
 H         4.278046         0.203612         3.160547
