19
Iteration:  3096charge 0 multiplicity 1
 C         3.253864         1.587446         0.346557
 C         2.284919         0.770673         1.104973
 C         1.720653         0.782326         2.482331
 O         0.454773         0.355012         2.129799
 C         0.968966        -0.088248         0.896163
 C        -0.058112        -0.087163        -0.254577
 C         1.941523        -1.433348         1.394880
 C         2.763718        -0.379287         2.043591
 O         4.115141        -0.358570         2.512575
 H         4.271850         1.660026         0.985268
 H         3.495445         1.356907        -0.754628
 H         2.874417         2.608558         0.271312
 H         1.929613         1.499427         3.384938
 H        -1.001994        -0.498985         0.187515
 H        -0.305626         1.028328        -0.429444
 H         0.284258        -0.548288        -1.153151
 H         1.381399        -2.348820         1.888031
 H         2.638409        -1.777816         0.494680
 H         4.171423        -0.817588         3.384307
