19
Iteration:  1102charge 0 multiplicity 1
 C         2.955529         1.927582         0.375683
 C         2.274718         0.880641         1.219142
 C         1.725864         0.654853         2.622983
 O         0.451394         0.133541         2.207136
 C         1.058987        -0.153848         0.905357
 C         0.184493         0.026051        -0.283999
 C         1.990603        -1.376913         1.137899
 C         2.858551        -0.310116         1.974197
 O         3.988416        -0.558865         2.618692
 H         3.772312         2.314528         0.972608
 H         3.364117         1.441670        -0.517670
 H         2.360900         2.806007        -0.116988
 H         1.756864         1.262757         3.624224
 H        -0.460159        -0.895972        -0.472270
 H        -0.406735         0.957867        -0.332407
 H         0.833458        -0.012008        -1.202246
 H         1.368944        -2.043617         1.761651
 H         2.692054        -1.704440         0.331368
 H         4.458616        -1.178780         2.045143
