19
Iteration:  3124charge 0 multiplicity 1
 C         3.119439         1.689663         0.176777
 C         2.345784         0.776790         1.136281
 C         1.783966         0.675473         2.553102
 O         0.461165         0.375004         2.212063
 C         1.075745        -0.110954         0.932423
 C         0.161546        -0.085663        -0.242560
 C         1.793445        -1.419487         1.344508
 C         2.744557        -0.429615         2.009282
 O         4.032339        -0.345068         2.548551
 H         4.084584         1.894399         0.444631
 H         3.209358         1.146028        -0.765424
 H         2.649498         2.714460         0.384177
 H         2.043284         1.351964         3.270345
 H        -0.827274        -0.468849         0.083311
 H         0.234789         0.956103        -0.484771
 H         0.448581        -0.565051        -1.224071
 H         1.109218        -2.032160         1.852820
 H         2.295004        -1.948704         0.602356
 H         3.930129        -0.748494         3.459110
