19
Iteration:  2075charge 0 multiplicity 1
 C         3.127728         1.839865         0.343430
 C         2.363441         0.839599         1.120393
 C         1.754814         0.783299         2.503224
 O         0.420897         0.305048         2.112604
 C         1.048549        -0.243241         0.901098
 C        -0.023183        -0.141362        -0.226950
 C         1.984427        -1.375500         1.286741
 C         2.814222        -0.320485         2.004907
 O         4.039899        -0.569806         2.627165
 H         3.935474         2.329968         0.843591
 H         3.606526         1.175238        -0.466514
 H         2.559243         2.569657        -0.109163
 H         2.068175         1.606232         3.230164
 H        -0.985309        -0.394236         0.293366
 H        -0.215926         0.872131        -0.562790
 H         0.126188        -0.752479        -1.145431
 H         1.383299        -2.189620         1.767253
 H         2.579109        -1.624765         0.426763
 H         4.097222        -0.022278         3.401703
