19
Iteration:  1307charge 0 multiplicity 1
 C         2.945957         1.865977         0.289879
 C         2.317386         0.848854         1.178034
 C         1.815515         0.641466         2.543260
 O         0.467003         0.293591         2.174746
 C         1.086082        -0.021293         0.853197
 C         0.071176        -0.063754        -0.266376
 C         1.966790        -1.385289         1.220157
 C         2.808483        -0.423485         2.032478
 O         4.036955        -0.598036         2.651209
 H         3.728047         2.457567         0.775459
 H         3.513212         1.515856        -0.615198
 H         2.233342         2.518244         0.020876
 H         2.173845         0.992876         3.565391
 H        -0.296955        -1.099275        -0.246224
 H        -0.690029         0.682523        -0.234011
 H         0.617847         0.005046        -1.194761
 H         1.504229        -2.234074         1.601725
 H         2.506404        -1.637166         0.261847
 H         3.877304         0.041330         3.355455
