19
Iteration:  3121
 C         3.123297         1.678627         0.210307
 C         2.356811         0.760585         1.132103
 C         1.779644         0.669401         2.563936
 O         0.447333         0.387603         2.199268
 C         1.077650        -0.138726         0.914410
 C         0.146631        -0.097260        -0.222560
 C         1.799595        -1.401355         1.331800
 C         2.767446        -0.429100         1.986647
 O         4.008696        -0.329986         2.542943
 H         4.198885         1.806253         0.523687
 H         3.191033         1.222270        -0.741129
 H         2.702268         2.729748         0.241665
 H         2.087798         1.440512         3.386320
 H        -0.900731        -0.392685         0.099180
 H         0.209283         0.996140        -0.394130
 H         0.466085        -0.564315        -1.212838
 H         1.081591        -2.025229         1.922307
 H         2.379058        -2.000424         0.576100
 H         4.039886        -0.708096         3.432083
