19
Iteration:  4835charge 0 multiplicity 1
 C         3.002898         1.873470         0.183535
 C         2.502380         0.771047         1.042244
 C         1.808940         0.789653         2.439856
 O         0.486287         0.584150         2.140022
 C         0.948170        -0.124218         0.943625
 C         0.142156        -0.290024        -0.204054
 C         1.862313        -1.456085         1.452502
 C         2.845306        -0.328816         1.969532
 O         3.984194        -0.648154         2.661200
 H         4.156468         1.843825         0.051359
 H         2.377216         1.842471        -0.803919
 H         2.674728         2.772648         0.684313
 H         1.981778         1.383180         3.344126
 H        -0.516565        -1.291500        -0.051451
 H        -0.513300         0.592986        -0.419564
 H         0.701836        -0.402179        -1.240559
 H         1.591460        -2.229474         2.198080
 H         2.184844        -2.056075         0.631096
 H         3.859341        -0.319246         3.568389
