19
Iteration:  1969
 C         3.012723         1.871377         0.185817
 C         2.314694         0.780074         1.068112
 C         1.807882         0.761590         2.516581
 O         0.459644         0.317077         2.257181
 C         1.045303        -0.153097         0.929624
 C         0.207889        -0.133438        -0.312285
 C         1.775646        -1.364680         1.334411
 C         2.756621        -0.307500         2.002328
 O         4.121074        -0.569581         2.643665
 H         3.864182         2.290897         0.824804
 H         3.266498         1.691819        -0.877062
 H         2.206969         2.676555         0.138359
 H         2.055799         1.232629         3.467363
 H        -0.295529        -1.089226        -0.541547
 H        -0.494192         0.682579        -0.307285
 H         0.890364        -0.027457        -1.183722
 H         1.272277        -2.065208         1.957848
 H         2.219264        -2.028063         0.569481
 H         4.043140        -0.848942         3.555455
