19
Iteration:  2622
 C         3.145170         1.743040         0.303728
 C         2.288379         0.853394         1.083579
 C         1.799121         0.803271         2.482651
 O         0.435515         0.321717         2.172722
 C         1.093573        -0.155714         0.855637
 C        -0.016222        -0.033097        -0.203942
 C         1.920381        -1.396579         1.357099
 C         2.803195        -0.390269         2.099219
 O         4.063869        -0.580087         2.524260
 H         3.971858         2.185916         0.856584
 H         3.584868         1.279866        -0.546484
 H         2.540460         2.539157        -0.244449
 H         1.857899         1.501816         3.275558
 H        -0.881271        -0.712524         0.031022
 H        -0.287847         1.046958        -0.366243
 H         0.393246        -0.367435        -1.177650
 H         1.262485        -2.034006         2.086348
 H         2.405724        -1.883337         0.415321
 H         4.127800        -0.586907         3.490355
