19
Iteration:   485
 C         3.101141         1.937887         0.421799
 C         2.339511         0.889941         1.159561
 C         1.835086         0.599205         2.516290
 O         0.472853         0.139909         2.264953
 C         0.934338        -0.172393         0.895798
 C         0.115058         0.010175        -0.276988
 C         1.884091        -1.355765         1.163550
 C         2.835154        -0.308205         1.886704
 O         3.960442        -0.569060         2.684370
 H         3.885316         2.534612         0.905212
 H         3.377884         1.696337        -0.574145
 H         2.330994         2.711349         0.205794
 H         1.999693         0.996037         3.593703
 H        -0.724976        -0.622336        -0.269066
 H        -0.281432         1.028782        -0.522677
 H         0.865744        -0.294198        -1.066185
 H         1.513515        -2.226059         1.799003
 H         2.247201        -1.789651         0.248038
 H         4.681857        -0.461224         2.012546
