19
Iteration:  4732charge 0 multiplicity 1
 C         3.181950         1.541570         0.238029
 C         2.302772         0.700942         1.199025
 C         1.774456         0.866563         2.540669
 O         0.544985         0.332449         2.219310
 C         0.969363        -0.196539         0.879531
 C         0.031256        -0.034250        -0.323884
 C         1.750155        -1.409741         1.343520
 C         2.778782        -0.362924         2.151600
 O         4.136873        -0.286216         2.494000
 H         3.267756         2.571996         0.449655
 H         4.116038         1.129236         0.054151
 H         2.629349         1.501361        -0.786253
 H         1.919910         1.427975         3.464482
 H        -1.008560        -0.420143        -0.098481
 H        -0.137495         1.095508        -0.602603
 H         0.422062        -0.664968        -1.129823
 H         1.193229        -2.139045         1.821609
 H         2.335700        -1.765602         0.470496
 H         4.258540        -0.807498         3.315956
