19
Iteration:  2149charge 0 multiplicity 1
 C         2.867241         1.887521         0.255694
 C         2.276209         0.822310         1.058086
 C         1.915012         0.723350         2.511161
 O         0.442154         0.436779         2.201553
 C         1.065754        -0.071259         0.932357
 C         0.276844        -0.206733        -0.315113
 C         1.863422        -1.379123         1.406095
 C         2.780495        -0.364121         2.016880
 O         4.034072        -0.712207         2.599156
 H         3.707074         2.370364         0.633742
 H         3.055351         1.418862        -0.705878
 H         2.206304         2.802061         0.099232
 H         2.115404         1.740865         3.056611
 H        -0.380423        -1.073903        -0.324204
 H        -0.374108         0.618323        -0.541772
 H         1.004438        -0.196159        -1.134727
 H         1.430032        -1.985588         2.169650
 H         2.458168        -1.893790         0.711122
 H         3.984964        -0.416564         3.554369
