19
Iteration:  4585
 C         3.029884         1.695713         0.124288
 C         2.349572         0.805411         1.130759
 C         1.868486         0.811470         2.563037
 O         0.455661         0.459304         2.243684
 C         1.064572        -0.045754         0.974773
 C         0.201924        -0.119089        -0.239499
 C         1.824004        -1.380679         1.351332
 C         2.704483        -0.383878         2.074144
 O         4.065655        -0.624035         2.492766
 H         2.304985         1.669637        -0.741718
 H         3.091585         2.771279         0.531757
 H         4.000425         1.435094        -0.226509
 H         2.096054         1.287733         3.525048
 H        -0.790736        -0.506927         0.048962
 H        -0.228414         0.810883        -0.702171
 H         0.538648        -0.844432        -1.051175
 H         1.096321        -2.139980         1.856699
 H         2.284832        -1.840475         0.475294
 H         4.122250        -0.672871         3.467410
