19
Iteration:  1015charge 0 multiplicity 1
 C         3.050194         2.132659         0.563848
 C         2.313629         0.915207         1.201128
 C         1.783203         0.645270         2.528046
 O         0.460483         0.152604         2.131556
 C         1.019388        -0.115522         0.838428
 C         0.074953        -0.142183        -0.325467
 C         1.962170        -1.341472         1.185476
 C         2.814245        -0.409743         1.989667
 O         4.032469        -0.659467         2.623940
 H         3.913819         2.528830         1.070783
 H         3.278413         1.972858        -0.449935
 H         2.213224         2.894267         0.429892
 H         1.756121         1.321998         3.409727
 H        -0.836427        -0.704348         0.142273
 H        -0.255823         0.880880        -0.631139
 H         0.495451        -0.785240        -1.150757
 H         1.360700        -2.171525         1.689942
 H         2.558725        -1.767869         0.306453
 H         4.781573        -0.356120         2.036712
