19
Iteration:  2531charge 0 multiplicity 1
 C         2.932841         1.832582         0.237304
 C         2.355844         0.778141         1.140292
 C         1.863390         0.813820         2.502855
 O         0.511245         0.439480         2.106290
 C         1.113982        -0.118117         0.872863
 C         0.110052        -0.101153        -0.286391
 C         1.885853        -1.433376         1.408852
 C         2.793887        -0.350331         2.085982
 O         4.050939        -0.643587         2.607291
 H         3.861464         2.119856         0.616389
 H         2.957338         1.581878        -0.834694
 H         2.134227         2.627792         0.289870
 H         2.043688         1.414024         3.445156
 H        -0.643120        -0.922096         0.044936
 H        -0.446472         0.874377        -0.305160
 H         0.537065        -0.373365        -1.299919
 H         1.219998        -1.973195         2.063600
 H         2.248645        -1.799091         0.533072
 H         3.800382        -1.412449         3.196855
