19
Iteration:  2240charge 0 multiplicity 1
 C         3.198125         1.662174         0.277686
 C         2.291944         0.804993         1.147236
 C         1.754551         0.731806         2.551108
 O         0.470117         0.277383         2.230808
 C         1.048648        -0.131755         0.809299
 C         0.059167        -0.167668        -0.222620
 C         1.863745        -1.294468         1.237671
 C         2.743674        -0.292928         2.014184
 O         4.063613        -0.390159         2.580891
 H         3.940664         2.114921         1.009888
 H         3.738872         0.966316        -0.450625
 H         2.779864         2.438478        -0.226816
 H         1.877184         1.427400         3.373102
 H        -0.899118        -0.566107         0.246262
 H        -0.165694         0.920778        -0.403872
 H         0.334176        -0.685095        -1.156084
 H         1.319877        -2.147694         1.672253
 H         2.510390        -1.717899         0.399519
 H         3.872532        -0.759335         3.482987
