19
Iteration:    80
 C         2.950744         2.153619         0.636576
 C         2.358762         0.876285         1.118436
 C         1.801563         0.646226         2.572128
 O         0.483408         0.119107         2.204338
 C         1.110578        -0.151907         0.768374
 C         0.132472        -0.091525        -0.268662
 C         1.953510        -1.325936         1.165077
 C         2.775031        -0.298284         1.959893
 O         3.959621        -0.774634         2.481303
 H         3.629338         2.517366         1.368046
 H         3.444366         2.144555        -0.256607
 H         2.021740         2.870134         0.586547
 H         2.094651         1.184955         3.496365
 H        -0.211353        -1.151137        -0.518962
 H        -0.696201         0.473934         0.133685
 H         0.528752         0.465610        -1.084929
 H         1.300141        -2.128783         1.647903
 H         2.593906        -1.610630         0.359362
 H         4.579766        -0.073189         2.580594
