19
Iteration:  2655
 C         3.388172         1.738092         0.384537
 C         2.321361         0.797663         1.116312
 C         1.787861         0.813405         2.506949
 O         0.461346         0.389131         2.184281
 C         0.969849        -0.108358         0.925929
 C        -0.076004        -0.240145        -0.171474
 C         1.856429        -1.364554         1.236246
 C         2.746054        -0.344524         2.006962
 O         4.048947        -0.453773         2.489028
 H         4.155969         2.183909         1.072705
 H         3.859262         1.271847        -0.466083
 H         2.777862         2.697899         0.056381
 H         1.805685         1.420238         3.344544
 H        -0.822652        -1.082973        -0.014344
 H        -0.699664         0.684234        -0.318945
 H         0.603724        -0.444256        -1.044952
 H         1.262628        -2.169503         1.878274
 H         2.107245        -1.909152         0.218145
 H         4.227149        -1.179374         3.142847
