19
Iteration:  4917charge 0 multiplicity 1
 C         3.108301         1.458115         0.163225
 C         2.267993         0.771194         1.203920
 C         1.735083         0.820970         2.598261
 O         0.408976         0.371182         2.225073
 C         1.073596        -0.118780         0.865855
 C         0.156023        -0.127214        -0.335471
 C         1.910101        -1.367560         1.331440
 C         2.728163        -0.308418         2.083955
 O         4.068414        -0.279354         2.571299
 H         3.275805         0.793370        -0.660493
 H         2.605254         2.301214        -0.300854
 H         4.120248         1.767567         0.628635
 H         2.025414         1.308002         3.537102
 H        -0.690802        -0.613399        -0.040022
 H        -0.055599         0.868058        -0.671906
 H         0.652800        -0.740078        -1.015742
 H         1.346651        -2.182312         1.875674
 H         2.385438        -1.737285         0.342295
 H         4.306610        -0.830416         3.343865
