19
Iteration:  1572
 C         2.981682         1.757250         0.286052
 C         2.388906         0.748158         1.189643
 C         1.792788         0.777447         2.559160
 O         0.511791         0.420739         2.147572
 C         1.103427        -0.109470         0.946244
 C         0.101570        -0.176325        -0.326982
 C         1.868867        -1.328629         1.275621
 C         2.744534        -0.378808         2.068837
 O         4.011912        -0.554521         2.650456
 H         3.890345         2.099477         0.682575
 H         3.076840         1.380579        -0.805942
 H         2.244996         2.525080         0.170810
 H         2.155330         1.070725         3.616609
 H        -0.430384        -1.135249        -0.343157
 H        -0.622190         0.687144        -0.290354
 H         0.501598        -0.225374        -1.370072
 H         1.343388        -2.143161         1.827723
 H         2.372393        -1.636924         0.384537
 H         4.674404        -0.028605         2.098185
