19
Iteration:  3835
 C         2.988970         1.721322         0.124040
 C         2.375505         0.707583         1.110590
 C         1.870919         0.783068         2.475610
 O         0.532729         0.440223         2.175461
 C         1.022457        -0.150781         0.935749
 C         0.107990         0.033614        -0.213907
 C         1.820048        -1.400551         1.440568
 C         2.765440        -0.376330         2.042924
 O         4.065413        -0.583293         2.603863
 H         2.148954         1.874152        -0.534765
 H         3.224647         2.750630         0.444669
 H         3.899665         1.351610        -0.494681
 H         2.315908         1.401205         3.208479
 H        -0.903561        -0.268332         0.002699
 H         0.069936         1.037512        -0.406616
 H         0.484584        -0.536445        -0.999444
 H         1.207472        -2.195199         2.053169
 H         2.142654        -1.945515         0.575280
 H         3.797666        -1.065759         3.408078
