19
Iteration:  1747charge 0 multiplicity 1
 C         3.016163         1.791811         0.206598
 C         2.370403         0.768511         1.161253
 C         1.805596         0.750077         2.558338
 O         0.498667         0.333065         2.110868
 C         1.028838        -0.052308         0.915436
 C         0.089761        -0.104742        -0.238305
 C         1.909757        -1.381823         1.310405
 C         2.788359        -0.372633         2.060647
 O         4.032449        -0.605793         2.672611
 H         3.922047         2.272598         0.507120
 H         3.215658         1.275344        -0.810816
 H         2.307658         2.550745         0.058941
 H         1.889355         1.443237         3.322090
 H        -0.371216        -1.107877        -0.171265
 H        -0.760393         0.580731        -0.210589
 H         0.603358         0.043190        -1.173329
 H         1.318968        -2.181638         1.823857
 H         2.382131        -1.693807         0.399783
 H         4.258542         0.314625         2.744469
