19
Iteration:   593charge 0 multiplicity 1
 C         2.954147         2.075187         0.519532
 C         2.277886         0.854102         1.071793
 C         1.848448         0.715138         2.518039
 O         0.422578         0.247012         2.241270
 C         0.993063        -0.145375         0.891105
 C         0.198822        -0.087238        -0.374881
 C         1.854583        -1.414650         1.280841
 C         2.785872        -0.415182         2.016636
 O         4.095422        -0.665337         2.552359
 H         3.715329         2.357021         1.272593
 H         3.623230         1.917540        -0.444375
 H         2.270469         2.845264         0.375451
 H         1.983985         1.344325         3.464388
 H        -0.535332        -0.840624        -0.583560
 H        -0.176693         0.961000        -0.417525
 H         1.009649        -0.280420        -1.135555
 H         1.136562        -1.942103         1.964718
 H         2.330376        -2.086691         0.579811
 H         4.761328        -0.648757         1.864579
