19
Iteration:  4875charge 0 multiplicity 1
 C         3.053192         1.679244         0.146841
 C         2.375017         0.715408         1.096392
 C         1.729275         0.926651         2.426628
 O         0.503205         0.318811         2.213182
 C         1.119748        -0.167682         0.889257
 C         0.098983        -0.103444        -0.274174
 C         1.829894        -1.409732         1.444085
 C         2.766988        -0.319329         2.117991
 O         4.052906        -0.476694         2.594400
 H         3.995875         1.251747        -0.190340
 H         2.481554         2.063016        -0.635354
 H         3.371878         2.589387         0.689711
 H         1.805543         1.662773         3.242904
 H        -0.678036        -0.872816        -0.146049
 H        -0.372296         0.826850        -0.317252
 H         0.559047        -0.276381        -1.280699
 H         1.145049        -1.968308         2.068792
 H         2.492210        -1.897198         0.662046
 H         3.994890        -0.778094         3.531439
