19
Iteration:  4993
 C         3.084075         1.852525         0.244342
 C         2.389951         0.694136         1.013227
 C         1.853831         0.867889         2.369910
 O         0.503731         0.452047         2.103896
 C         1.046701        -0.212182         0.840579
 C         0.055689        -0.331595        -0.262781
 C         1.774614        -1.406348         1.456325
 C         2.723368        -0.364983         2.157421
 O         4.085162        -0.445963         2.672048
 H         2.444801         2.210033        -0.541938
 H         3.242779         2.616119         0.995704
 H         4.125591         1.672875        -0.229747
 H         2.084572         1.566481         3.199743
 H        -0.568812        -1.055046         0.143206
 H        -0.461061         0.673713        -0.185570
 H         0.442853        -0.610642        -1.227928
 H         1.005841        -1.968927         1.964309
 H         2.444002        -1.818585         0.715538
 H         4.049398        -0.646262         3.627708
