19
Iteration:  2456charge 0 multiplicity 1
 C         3.363040         1.700633         0.351128
 C         2.320163         0.852034         1.116257
 C         1.759480         0.785590         2.566071
 O         0.386243         0.298440         2.171749
 C         1.009185        -0.097545         0.875025
 C        -0.033677        -0.180712        -0.219655
 C         1.891304        -1.349885         1.329856
 C         2.700568        -0.331092         2.074217
 O         4.045505        -0.463470         2.399492
 H         3.998793         1.910993         1.146650
 H         3.890672         1.138675        -0.331434
 H         3.020156         2.628865        -0.224983
 H         1.827629         1.333746         3.526330
 H        -0.776010        -0.916314         0.116048
 H        -0.405686         0.822686        -0.358118
 H         0.390461        -0.579223        -1.123458
 H         1.562758        -2.358850         1.850932
 H         2.557429        -1.700316         0.528400
 H         4.263063        -0.255887         3.316450
