19
Iteration:  4199charge 0 multiplicity 1
 C         2.920671         1.709201         0.061819
 C         2.365980         0.747830         1.067807
 C         1.904869         0.750248         2.490625
 O         0.529621         0.482941         2.306723
 C         1.022131        -0.107260         0.981678
 C         0.074261         0.151252        -0.142914
 C         1.807303        -1.414403         1.325581
 C         2.903889        -0.395994         1.925764
 O         4.061441        -0.757451         2.610607
 H         3.199873         2.682730         0.531719
 H         3.741585         1.138295        -0.473974
 H         2.199058         2.031329        -0.721723
 H         2.101547         1.156538         3.477241
 H        -0.982514        -0.133614         0.319352
 H         0.131670         1.296861        -0.411084
 H         0.320377        -0.429780        -1.042621
 H         1.341853        -2.167935         1.951926
 H         1.971003        -1.920974         0.316773
 H         3.906571        -0.628260         3.563969
