19
Iteration:  3805charge 0 multiplicity 1
 C         2.956514         1.808603         0.142178
 C         2.334598         0.703022         1.081272
 C         1.857704         0.838871         2.444039
 O         0.482604         0.485114         2.158742
 C         1.066858        -0.135615         0.926262
 C         0.141274        -0.041927        -0.234317
 C         1.822300        -1.399300         1.529643
 C         2.789960        -0.332703         2.085152
 O         4.106483        -0.730296         2.579047
 H         2.058501         2.267140        -0.265094
 H         3.538080         2.508659         0.746348
 H         3.507603         1.392247        -0.816745
 H         2.273136         1.627699         2.989195
 H        -0.839856        -0.735721        -0.166542
 H        -0.254859         1.108131        -0.405150
 H         0.540191        -0.335935        -1.231879
 H         1.264455        -2.020697         2.314619
 H         2.280188        -1.974115         0.663268
 H         3.951167        -1.278670         3.389203
