19
Iteration:   440charge 0 multiplicity 1
 C         2.993564         2.003384         0.683660
 C         2.418514         0.738687         1.175152
 C         1.671567         0.731437         2.570689
 O         0.437143         0.333209         2.054011
 C         1.114097        -0.117549         0.870714
 C         0.112984        -0.152825        -0.273617
 C         1.880837        -1.357509         1.307161
 C         2.787894        -0.396143         2.006782
 O         4.114146        -0.620928         2.400431
 H         3.650709         2.394580         1.450787
 H         3.552781         1.954991        -0.262540
 H         2.286510         2.779231         0.504240
 H         1.664933         1.465824         3.407532
 H        -0.595344        -0.966001        -0.130328
 H        -0.538777         0.743688        -0.219987
 H         0.576968        -0.152611        -1.254075
 H         1.336922        -2.209631         1.807372
 H         2.370995        -1.734247         0.415518
 H         4.490779        -1.143544         1.631363
