19
Iteration:  4794
 C         3.042107         1.820877         0.187964
 C         2.376793         0.741232         1.026442
 C         1.844610         0.874781         2.473169
 O         0.523648         0.370916         2.221168
 C         1.089984        -0.107370         0.839600
 C         0.020179        -0.232869        -0.280696
 C         1.820039        -1.245797         1.423633
 C         2.741623        -0.294680         2.109548
 O         4.077140        -0.667413         2.639006
 H         3.996353         2.274558         0.517952
 H         3.285531         1.263436        -0.783356
 H         2.243103         2.552316        -0.047281
 H         2.039564         1.683475         3.186309
 H        -0.585263        -0.961226         0.145884
 H        -0.549629         0.600932        -0.743291
 H         0.505465        -0.771335        -1.041941
 H         1.155391        -2.018177         2.013492
 H         2.426709        -1.858623         0.731927
 H         4.019279        -0.765102         3.613358
