19
Iteration:  1494
 C         2.949161         1.800043         0.326023
 C         2.330925         0.757694         1.128975
 C         1.800888         0.704814         2.542556
 O         0.465059         0.433842         2.104643
 C         1.122686        -0.096348         0.932942
 C         0.076121        -0.118890        -0.256210
 C         1.865642        -1.361299         1.258763
 C         2.775556        -0.458265         2.075705
 O         4.139068        -0.554291         2.586149
 H         3.633427         2.355063         0.935715
 H         3.513457         1.435408        -0.644338
 H         2.146880         2.415613         0.025049
 H         1.876572         1.208068         3.581593
 H        -0.769468        -0.734613         0.006021
 H        -0.312612         0.862295        -0.614874
 H         0.451779        -0.652927        -1.179315
 H         1.452350        -2.294311         1.615411
 H         2.571261        -1.539465         0.452567
 H         4.090895         0.064201         3.373987
