19
Iteration:  2351charge 0 multiplicity 1
 C         2.793734         1.879449         0.212277
 C         2.364602         0.770766         1.066273
 C         1.850079         0.782844         2.608942
 O         0.472892         0.496020         2.088304
 C         1.076245        -0.158363         0.914100
 C         0.246681        -0.141999        -0.313633
 C         1.860982        -1.382515         1.416949
 C         2.861544        -0.361697         2.137384
 O         4.036345        -0.733472         2.599029
 H         3.831732         2.459789         0.297725
 H         3.047797         1.455350        -0.832034
 H         2.097360         2.609190         0.204280
 H         2.099940         1.634540         3.231424
 H        -0.584917        -0.893643        -0.064740
 H        -0.486245         0.777730        -0.250151
 H         0.847778        -0.203229        -1.268638
 H         1.269577        -2.192913         1.838539
 H         2.438862        -1.808065         0.469699
 H         4.015397        -0.777521         3.580963
