19
Iteration:  3961charge 0 multiplicity 1
 C         3.152756         1.719651         0.248742
 C         2.316717         0.740098         1.036392
 C         1.874926         0.833713         2.504210
 O         0.517700         0.542723         2.242387
 C         1.019118        -0.113220         0.952557
 C         0.041873        -0.128969        -0.173595
 C         1.708404        -1.428036         1.427861
 C         2.829497        -0.407806         1.999543
 O         4.052670        -0.602298         2.443507
 H         2.915506         1.541413        -0.854294
 H         2.830488         2.762837         0.494240
 H         4.180503         1.623035         0.316376
 H         2.072805         1.532517         3.340764
 H        -0.594572        -0.965687        -0.007985
 H        -0.467216         0.845198        -0.466688
 H         0.757927        -0.342502        -0.988668
 H         1.193057        -2.066722         2.059545
 H         2.147976        -1.832333         0.513501
 H         3.888037        -0.797915         3.378201
