19
Iteration:  3006charge 0 multiplicity 1
 C         2.974463         1.810785         0.258522
 C         2.335221         0.734882         1.071664
 C         1.847560         0.764447         2.466849
 O         0.505614         0.481782         2.150734
 C         1.103058        -0.159801         0.900610
 C         0.187140        -0.090187        -0.228215
 C         1.829121        -1.392280         1.433787
 C         2.765243        -0.331864         2.074338
 O         4.021738        -0.643000         2.562145
 H         3.570220         2.547583         0.804627
 H         3.491468         1.355831        -0.721248
 H         2.035466         2.403026        -0.091795
 H         2.095763         1.588394         3.013137
 H        -0.525445        -0.936495        -0.101020
 H        -0.418068         0.842162        -0.285460
 H         0.592237        -0.229028        -1.259594
 H         1.174625        -2.181366         2.103282
 H         2.518719        -1.936410         0.651595
 H         3.898465        -0.976945         3.459465
