19
Iteration:    53charge 0 multiplicity 1
 C         3.025034         2.246856         0.637486
 C         2.292088         1.028971         1.131970
 C         1.811297         0.668514         2.536198
 O         0.486907         0.142844         2.145952
 C         0.953243        -0.042976         0.839828
 C        -0.087535        -0.216027        -0.264872
 C         2.084026        -1.347907         1.078245
 C         2.874377        -0.325297         1.899325
 O         4.022906        -0.894564         2.629616
 H         3.765218         2.496060         1.468558
 H         3.618808         1.967276        -0.358400
 H         2.418763         3.058820         0.464721
 H         2.008618         1.044679         3.567406
 H        -0.025833        -1.246096        -0.493659
 H        -1.065529         0.295424        -0.130966
 H         0.323687         0.198069        -1.248753
 H         1.538198        -2.126571         1.541284
 H         2.643746        -1.674393         0.163167
 H         4.549991        -0.220332         3.027017
