19
Iteration:  4269
 C         3.129469         1.768046         0.225034
 C         2.384285         0.731388         1.066116
 C         1.866431         0.781864         2.509831
 O         0.542253         0.566693         2.188882
 C         1.025544        -0.115248         1.020964
 C         0.011532        -0.062329        -0.130857
 C         1.781688        -1.386927         1.434932
 C         2.732517        -0.382196         1.967521
 O         4.036810        -0.698934         2.378680
 H         3.851109         2.168056         0.928149
 H         3.597905         1.344225        -0.676753
 H         2.571281         2.624766         0.012783
 H         2.238229         1.248934         3.435867
 H        -0.683042        -0.790968         0.034694
 H        -0.484007         0.837129        -0.168908
 H         0.360656        -0.233256        -1.152441
 H         1.309556        -2.069384         2.227010
 H         2.178872        -1.997129         0.587367
 H         3.986900        -1.099097         3.269799
