19
Iteration:  1701
 C         3.021864         1.798950         0.289911
 C         2.326419         0.769072         1.085695
 C         1.772377         0.865460         2.446972
 O         0.463787         0.290645         2.210286
 C         1.017492        -0.124923         0.970499
 C         0.159204        -0.136844        -0.278052
 C         1.822579        -1.391741         1.382470
 C         2.831742        -0.314562         2.077981
 O         4.073019        -0.537424         2.501255
 H         3.781311         2.228583         0.921307
 H         3.568122         1.353515        -0.644541
 H         2.361007         2.609260         0.040284
 H         1.849394         1.443057         3.405920
 H        -0.718636        -0.728173        -0.295705
 H        -0.214731         0.855193        -0.663650
 H         0.893903        -0.415783        -1.040888
 H         1.465760        -2.137322         2.121893
 H         2.317474        -1.822407         0.499196
 H         4.053785        -1.093304         3.275192
