19
Iteration:   134charge 0 multiplicity 1
 C         2.780884         1.915879         0.450249
 C         2.281373         0.788260         1.320029
 C         1.709846         0.526974         2.657897
 O         0.450687         0.112202         2.228700
 C         1.070182        -0.057379         0.924327
 C         0.370041         0.195379        -0.343211
 C         1.993619        -1.356028         1.148561
 C         2.759795        -0.428520         1.964761
 O         4.071937        -0.607866         2.430391
 H         3.626335         2.426247         0.850381
 H         3.061737         1.593927        -0.507186
 H         1.965529         2.735657         0.313714
 H         1.901748         1.037250         3.668570
 H        -0.572909        -0.400904        -0.275089
 H         0.064122         1.208213        -0.468718
 H         1.050815        -0.140792        -1.061591
 H         1.579838        -2.271681         1.577497
 H         2.334647        -1.663333         0.217777
 H         4.403072         0.298817         2.382896
