19
Iteration:  2377
 C         2.858545         1.772034         0.159994
 C         2.362627         0.800059         1.097077
 C         1.804506         0.798377         2.466919
 O         0.509676         0.365672         2.196481
 C         1.071937        -0.091308         0.892985
 C         0.201375         0.003415        -0.313845
 C         1.903933        -1.390554         1.428632
 C         2.836479        -0.396513         2.068768
 O         4.029216        -0.614146         2.666290
 H         3.616705         2.388574         0.419397
 H         3.061980         1.399113        -0.793981
 H         1.971680         2.526059         0.063013
 H         2.056097         1.359577         3.390364
 H        -0.574136        -0.752242        -0.112136
 H        -0.337007         0.918377        -0.551105
 H         0.916261        -0.351617        -1.129594
 H         1.272293        -2.209971         2.077015
 H         2.336009        -1.984805         0.626070
 H         3.959044        -1.332193         3.314094
