19
Iteration:  2990
 C         2.847262         1.829960         0.148233
 C         2.420452         0.706589         1.067318
 C         1.806679         0.867251         2.462866
 O         0.465563         0.395641         2.150174
 C         1.103273        -0.189229         0.894611
 C         0.170491        -0.001624        -0.272424
 C         1.897580        -1.402180         1.510673
 C         2.808077        -0.366354         2.054785
 O         4.019133        -0.681293         2.605748
 H         3.657239         2.359612         0.725759
 H         3.512728         1.431001        -0.750176
 H         2.077969         2.605705        -0.125623
 H         2.132234         1.383332         3.481739
 H        -0.743147        -0.597983        -0.243473
 H         0.009386         1.070700        -0.204708
 H         0.712282        -0.130022        -1.201923
 H         1.377509        -1.952387         2.229208
 H         2.248497        -2.036449         0.764282
 H         3.982769        -0.973629         3.543240
