19
Iteration:  4281
 C         3.207437         1.747286         0.281762
 C         2.381587         0.748672         1.069606
 C         1.967557         0.807168         2.496171
 O         0.516999         0.526507         2.241325
 C         1.011333        -0.089616         0.861908
 C        -0.040098        -0.130695        -0.111187
 C         1.706574        -1.400965         1.407397
 C         2.741643        -0.451718         2.024730
 O         4.027780        -0.583039         2.381701
 H         4.133912         1.889097         0.812352
 H         3.561659         1.511724        -0.699866
 H         2.627668         2.680076         0.169995
 H         2.195019         1.485337         3.331972
 H        -0.733241        -0.858706         0.001357
 H        -0.508330         0.781712         0.025865
 H         0.441201        -0.186516        -1.091629
 H         0.978564        -1.956488         2.136174
 H         2.114817        -2.033287         0.579722
 H         4.129308        -1.236583         3.103778
