19
Iteration:  2761
 C         2.831915         1.760140         0.110098
 C         2.472357         0.756101         1.132755
 C         1.837229         0.685658         2.550252
 O         0.513301         0.422645         2.213874
 C         1.087513        -0.153364         0.920284
 C         0.251421         0.038770        -0.228231
 C         1.774387        -1.398010         1.252922
 C         2.809877        -0.454425         2.055071
 O         4.021105        -0.527658         2.642435
 H         3.696382         2.195050         0.466152
 H         2.975714         1.407463        -0.974164
 H         2.007604         2.546801        -0.031562
 H         1.980959         1.179763         3.447046
 H        -0.781991        -0.390426         0.022450
 H         0.052758         1.132269        -0.398338
 H         0.551348        -0.428495        -1.166652
 H         1.322979        -2.134620         1.962480
 H         2.406483        -1.945187         0.571064
 H         3.836455        -0.773176         3.595184
