19
Iteration:  3907charge 0 multiplicity 1
 C         3.353602         1.596727         0.303309
 C         2.343968         0.829526         1.088778
 C         1.809507         0.881076         2.437313
 O         0.468307         0.417741         2.192956
 C         1.064147        -0.128005         0.910139
 C        -0.035476        -0.156767        -0.052850
 C         1.789162        -1.376212         1.378275
 C         2.714130        -0.339872         2.061540
 O         4.012981        -0.516649         2.374102
 H         2.875346         1.759736        -0.705988
 H         3.440095         2.634216         0.663170
 H         4.271885         1.196371         0.299971
 H         1.846011         1.503353         3.358486
 H        -0.898481        -0.852520         0.036296
 H        -0.529068         0.915462         0.038597
 H         0.400006        -0.336969        -1.163191
 H         1.295612        -2.160483         1.832731
 H         2.381322        -1.813908         0.552589
 H         4.114872        -1.005935         3.200142
