19
Iteration:  4194charge 0 multiplicity 1
 C         2.953280         1.700870         0.082460
 C         2.339935         0.745560         1.065438
 C         1.893571         0.771109         2.485608
 O         0.524207         0.477865         2.303047
 C         1.049082        -0.118445         0.948395
 C         0.032361         0.165473        -0.116217
 C         1.765415        -1.387204         1.329180
 C         2.901223        -0.460797         1.912694
 O         4.100459        -0.742954         2.616718
 H         3.226061         2.632526         0.544902
 H         3.721409         1.229971        -0.476050
 H         2.211241         2.045689        -0.746531
 H         2.070563         1.287513         3.448169
 H        -0.970972        -0.115673         0.157974
 H         0.061467         1.194342        -0.394170
 H         0.260601        -0.408137        -1.067392
 H         1.441559        -2.210171         2.020699
 H         2.273338        -1.804350         0.456365
 H         3.867784        -0.686409         3.562375
