19
Iteration:  4977charge 0 multiplicity 1
 C         3.112699         1.747290         0.291722
 C         2.381988         0.716812         1.020460
 C         1.733711         0.836837         2.454563
 O         0.437971         0.443804         2.051126
 C         1.025675        -0.188062         0.912532
 C         0.031917        -0.245226        -0.183955
 C         1.914837        -1.422327         1.481004
 C         2.864442        -0.296731         2.023749
 O         4.045618        -0.460763         2.632525
 H         2.635668         1.933380        -0.724797
 H         3.210941         2.752123         0.808034
 H         4.082167         1.390908         0.081052
 H         1.902114         1.738191         3.034356
 H        -0.926017        -0.927032        -0.142090
 H        -0.417673         0.725869        -0.596739
 H         0.593029        -0.484463        -1.141903
 H         1.557574        -2.173541         2.234565
 H         2.280500        -2.049350         0.621042
 H         3.930220        -0.486229         3.595064
