19
Iteration:   302
 C         2.897104         1.897594         0.419369
 C         2.254103         0.785152         1.316314
 C         1.749899         0.504608         2.656927
 O         0.436284         0.216114         2.270256
 C         1.041141        -0.071999         0.878014
 C         0.215689         0.112442        -0.367154
 C         1.986562        -1.376795         1.151317
 C         2.811768        -0.485736         1.864915
 O         4.070156        -0.481242         2.601291
 H         3.727654         2.349661         1.027895
 H         3.229226         1.465630        -0.505516
 H         2.091289         2.691171         0.222386
 H         1.955086         1.023172         3.549256
 H        -0.533338        -0.648543        -0.407660
 H        -0.273995         1.141633        -0.374318
 H         0.968409         0.065679        -1.241667
 H         1.543699        -2.334259         1.451866
 H         2.359464        -1.567074         0.124299
 H         4.717201        -0.409864         1.897253
