19
Iteration:  3331charge 0 multiplicity 1
 C         3.098412         1.657178         0.236835
 C         2.357886         0.775314         1.104346
 C         1.729902         0.800243         2.508009
 O         0.455377         0.334264         2.164910
 C         1.011277        -0.123576         0.881617
 C         0.072511        -0.058618        -0.287488
 C         1.851153        -1.429246         1.380890
 C         2.848817        -0.306563         2.072142
 O         4.097312        -0.437360         2.596670
 H         4.115474         1.567489         0.444895
 H         2.935005         1.151142        -0.718305
 H         2.727890         2.744761         0.292375
 H         1.768289         1.534168         3.355487
 H        -0.915285        -0.452573         0.033239
 H        -0.084976         0.868680        -0.714113
 H         0.475331        -0.608097        -1.173172
 H         1.201305        -2.105477         2.093649
 H         2.571963        -1.961401         0.721697
 H         4.092438        -0.931304         3.431834
