19
Iteration:  4402charge 0 multiplicity 1
 C         2.896444         1.769789         0.114357
 C         2.410804         0.680732         1.023948
 C         1.949819         0.755801         2.458685
 O         0.556536         0.465423         2.224414
 C         1.122685        -0.118340         1.029448
 C         0.152574         0.049616        -0.174767
 C         1.742180        -1.408368         1.401745
 C         2.761158        -0.478643         2.067059
 O         3.967138        -0.588695         2.542818
 H         3.816140         1.415010        -0.294204
 H         2.247755         1.925405        -0.701500
 H         3.182799         2.806311         0.566390
 H         2.132796         1.506214         3.249224
 H        -0.789286        -0.151835         0.151326
 H         0.185391         1.116073        -0.433034
 H         0.356246        -0.520600        -1.083654
 H         1.169558        -2.086183         2.137688
 H         2.179437        -1.908851         0.519597
 H         4.084190        -1.209541         3.278578
