19
Iteration:  1560
 C         2.972787         1.788817         0.306780
 C         2.351774         0.793564         1.149595
 C         1.854725         0.750402         2.562395
 O         0.480500         0.398286         2.242154
 C         1.040625        -0.121825         0.824755
 C         0.142080        -0.195250        -0.350052
 C         1.895320        -1.374983         1.348942
 C         2.775442        -0.327940         2.046520
 O         3.973630        -0.554310         2.628671
 H         3.902537         2.178130         0.610262
 H         3.230936         1.243557        -0.688301
 H         2.382410         2.624751         0.170298
 H         1.947753         1.572113         3.430104
 H        -0.527064        -1.038994        -0.351653
 H        -0.537205         0.696920        -0.184933
 H         0.784035         0.081556        -1.233586
 H         1.368001        -2.205724         1.864031
 H         2.506455        -1.798305         0.540148
 H         4.645740        -0.683266         1.965496
