19
Iteration:  3866
 C         3.177003         1.601602         0.152191
 C         2.352523         0.821193         1.127888
 C         1.815351         0.775789         2.553458
 O         0.514906         0.410371         2.241500
 C         0.984273        -0.077673         0.927392
 C         0.007041        -0.056935        -0.193759
 C         1.815877        -1.342499         1.295984
 C         2.766149        -0.379386         2.032761
 O         4.073335        -0.541664         2.555407
 H         2.529509         1.632605        -0.742472
 H         3.429885         2.642087         0.391008
 H         4.058037         1.073709        -0.258029
 H         2.211816         1.199583         3.481998
 H        -0.864153        -0.524015         0.193810
 H        -0.195369         0.896601        -0.600566
 H         0.481075        -0.723771        -0.967737
 H         1.193951        -2.121628         1.836227
 H         2.226959        -1.654691         0.364895
 H         3.867923        -0.491526         3.512879
