19
Iteration:  2284charge 0 multiplicity 1
 C         3.183723         1.778553         0.373028
 C         2.348587         0.795597         1.062961
 C         1.768709         0.816117         2.493551
 O         0.416874         0.351889         2.159873
 C         1.098628        -0.206469         0.876228
 C         0.002347        -0.206949        -0.215893
 C         1.914092        -1.318971         1.311758
 C         2.758484        -0.276230         2.018791
 O         4.027978        -0.587880         2.564705
 H         3.998519         2.173060         1.077679
 H         3.598941         1.404229        -0.613516
 H         2.568636         2.565979         0.184317
 H         1.871017         1.496824         3.324370
 H        -0.878086        -0.761166         0.215826
 H        -0.429154         0.801784        -0.446880
 H         0.359972        -0.692211        -1.139651
 H         1.430565        -2.154540         1.794991
 H         2.471677        -1.722478         0.394193
 H         4.360495         0.008017         3.276727
