19
Iteration:  4864
 C         3.027113         1.737194         0.201983
 C         2.321106         0.792284         1.036351
 C         1.863199         0.839412         2.456957
 O         0.536829         0.358307         2.200145
 C         1.093845        -0.181840         0.791320
 C         0.112463        -0.175750        -0.287493
 C         1.735848        -1.374852         1.431360
 C         2.751731        -0.260323         2.138243
 O         4.076737        -0.538644         2.648248
 H         3.967422         1.403819        -0.214874
 H         2.414147         1.824658        -0.620044
 H         3.123610         2.686932         0.769811
 H         1.969372         1.784206         3.006954
 H        -0.616441        -0.982874        -0.046836
 H        -0.372336         0.721704        -0.136555
 H         0.571249        -0.288061        -1.313643
 H         1.088857        -2.061168         1.974014
 H         2.361548        -2.156440         0.864203
 H         4.184085        -0.630857         3.627382
