19
Iteration:  2837
 C         3.177184         1.793475         0.356196
 C         2.379567         0.778153         1.114646
 C         1.817171         0.768926         2.539262
 O         0.486609         0.451066         2.216118
 C         1.062258        -0.094061         0.847032
 C         0.015117        -0.235643        -0.232356
 C         1.793959        -1.358254         1.338905
 C         2.729426        -0.352804         2.050341
 O         4.080406        -0.543104         2.452575
 H         3.928172         2.186562         0.943021
 H         3.640788         1.292017        -0.541949
 H         2.587407         2.539285        -0.133894
 H         2.099258         1.300614         3.402558
 H        -0.740174        -1.017602        -0.115878
 H        -0.637171         0.624251        -0.298425
 H         0.558963        -0.452617        -1.111213
 H         1.000366        -2.133129         1.866629
 H         2.284492        -1.815878         0.452093
 H         3.881630        -0.713614         3.376854
