19
Iteration:  3978charge 0 multiplicity 1
 C         3.019001         1.737126         0.106836
 C         2.423297         0.777856         1.055560
 C         1.881593         0.866174         2.526627
 O         0.520854         0.449311         2.220728
 C         1.049381        -0.076088         0.987373
 C         0.138199        -0.088065        -0.170708
 C         1.806056        -1.337748         1.401447
 C         2.687504        -0.398323         2.084287
 O         3.994311        -0.719736         2.464789
 H         2.995521         1.347363        -0.901174
 H         2.578675         2.732030         0.164438
 H         4.132167         1.883653         0.483454
 H         2.322687         1.514249         3.291527
 H        -0.787727        -0.705578         0.063401
 H        -0.360193         0.859549        -0.277679
 H         0.519738        -0.538650        -1.108166
 H         1.138216        -2.005093         2.135297
 H         2.393336        -1.833880         0.572290
 H         4.132685        -0.770645         3.418681
