19
Iteration:  3146charge 0 multiplicity 1
 C         2.913065         1.717701         0.149393
 C         2.347178         0.741873         1.091326
 C         1.817907         0.841126         2.581692
 O         0.481947         0.359761         2.221381
 C         1.017299        -0.105076         0.933445
 C         0.162527        -0.058234        -0.353951
 C         1.851653        -1.331727         1.373398
 C         2.832344        -0.364550         2.070241
 O         4.044790        -0.590128         2.612298
 H         3.878118         1.953713         0.403634
 H         3.132671         1.091483        -0.733795
 H         2.436087         2.768961         0.075087
 H         2.036272         1.396182         3.412591
 H        -0.771054        -0.658445        -0.256558
 H         0.128024         0.974817        -0.703384
 H         0.835795        -0.505821        -1.181951
 H         1.340184        -2.028162         1.985235
 H         2.468099        -1.851706         0.696510
 H         4.148663        -0.819384         3.531177
