19
Iteration:    26
 C         2.952236         2.097983         0.636529
 C         2.390923         0.865343         1.249472
 C         1.745590         0.556347         2.601666
 O         0.480940         0.287271         2.114074
 C         1.116176        -0.023595         0.805431
 C         0.003948        -0.199385        -0.203579
 C         2.081234        -1.280179         0.986449
 C         2.799119        -0.466245         1.990605
 O         4.018974        -0.698158         2.503365
 H         3.708746         2.529565         1.265088
 H         3.379980         1.818801        -0.266631
 H         2.127818         2.924554         0.400136
 H         1.878170         1.109002         3.505980
 H        -0.332768        -1.293962        -0.219183
 H        -0.714387         0.536721         0.154203
 H         0.178813         0.027763        -1.237713
 H         1.389627        -2.240514         1.069789
 H         2.625043        -1.303752         0.031956
 H         4.062854        -0.221776         3.323581
