19
Iteration:  1583
 C         3.002260         1.774165         0.233977
 C         2.373198         0.798959         1.170025
 C         1.823651         0.712758         2.557362
 O         0.426847         0.420747         2.097714
 C         1.037437        -0.053596         0.872965
 C         0.104087        -0.136005        -0.206365
 C         1.889395        -1.386551         1.259603
 C         2.762849        -0.448394         2.067657
 O         4.098200        -0.566379         2.693718
 H         3.908063         2.193406         0.582461
 H         3.234604         1.356943        -0.809593
 H         2.378444         2.635459         0.214440
 H         1.851735         1.269792         3.564168
 H        -0.410405        -1.064631         0.064269
 H        -0.704278         0.606098        -0.393306
 H         0.767716        -0.281615        -1.079414
 H         1.249591        -2.183118         1.711433
 H         2.274517        -1.719866         0.324882
 H         4.503078         0.306372         2.412867
