19
Iteration:  3086
 C         3.309934         1.647047         0.351960
 C         2.312709         0.740511         1.104412
 C         1.742920         0.834881         2.502270
 O         0.397404         0.331279         2.190394
 C         0.999726        -0.141795         0.829396
 C        -0.097129        -0.138317        -0.221186
 C         1.934419        -1.365085         1.324467
 C         2.764389        -0.318214         2.099789
 O         4.102548        -0.421425         2.487122
 H         4.286186         1.626511         1.031162
 H         3.622979         1.161970        -0.612861
 H         2.991953         2.652807         0.195328
 H         1.764101         1.847066         3.159784
 H        -1.093396        -0.647262         0.018933
 H        -0.342527         0.981587        -0.371982
 H         0.233428        -0.501800        -1.188328
 H         1.382942        -2.237466         1.878563
 H         2.668366        -1.800341         0.506944
 H         4.246141        -0.817486         3.355294
