19
Iteration:  2697
 C         3.209659         1.730464         0.409569
 C         2.362537         0.839681         1.145690
 C         1.786211         0.812225         2.506108
 O         0.483576         0.386501         2.139139
 C         1.013577        -0.065767         0.909365
 C         0.047349        -0.214767        -0.172270
 C         1.862062        -1.364109         1.296375
 C         2.662419        -0.360669         2.022021
 O         4.052294        -0.552299         2.414929
 H         4.153071         1.870499         0.977041
 H         3.535284         1.385119        -0.651995
 H         2.800705         2.842114         0.073847
 H         1.916061         1.510943         3.263069
 H        -0.663240        -1.090380         0.200599
 H        -0.742402         0.616945        -0.176159
 H         0.585105        -0.497366        -1.116970
 H         1.376614        -1.962325         1.986685
 H         2.470343        -1.785674         0.522038
 H         4.034382        -0.829870         3.355756
