19
Iteration:   145
 C         2.828927         1.933924         0.466507
 C         2.200425         0.922080         1.289011
 C         1.779934         0.583357         2.674108
 O         0.494442        -0.055146         2.245636
 C         1.096118        -0.063271         0.920156
 C         0.336835         0.200330        -0.337943
 C         1.944261        -1.391828         1.152267
 C         2.773781        -0.361208         1.948510
 O         3.994188        -0.633720         2.452341
 H         3.745507         2.370184         0.776919
 H         3.004482         1.409077        -0.431758
 H         2.089133         2.786033         0.177190
 H         2.023186         1.345827         3.506383
 H        -0.663622        -0.274630        -0.474031
 H         0.323881         1.236137        -0.565656
 H         0.843946        -0.227972        -1.144755
 H         1.466395        -2.246216         1.636622
 H         2.586807        -1.523005         0.346216
 H         4.599840         0.168972         2.373023
