19
Iteration:  3977
 C         3.024835         1.734731         0.110143
 C         2.424491         0.778290         1.056864
 C         1.879651         0.861561         2.517141
 O         0.523750         0.452023         2.223177
 C         1.046623        -0.067752         0.985877
 C         0.141363        -0.090182        -0.161143
 C         1.802079        -1.350846         1.404448
 C         2.680364        -0.389891         2.077036
 O         3.997045        -0.715851         2.462565
 H         2.989141         1.380589        -0.893815
 H         2.596779         2.721890         0.189838
 H         4.117245         1.871161         0.486091
 H         2.299525         1.516469         3.295642
 H        -0.790488        -0.723892         0.056423
 H        -0.363420         0.854648        -0.270809
 H         0.542632        -0.550350        -1.132627
 H         1.139619        -2.025921         2.095985
 H         2.378841        -1.833860         0.605439
 H         4.132894        -0.772623         3.418903
