19
Iteration:   321
 C         2.921486         1.918187         0.338819
 C         2.267447         0.814557         1.142370
 C         1.818693         0.598861         2.619818
 O         0.468475        -0.020956         2.243732
 C         1.042147        -0.177033         0.885428
 C         0.241863         0.227064        -0.246180
 C         1.947558        -1.382592         1.096931
 C         2.768574        -0.303608         2.010464
 O         3.994399        -0.509912         2.646795
 H         3.808337         2.234423         0.920991
 H         3.196523         1.504275        -0.608249
 H         2.096826         2.778630         0.158317
 H         1.916691         0.954751         3.583334
 H        -0.740126        -0.191452        -0.389145
 H         0.047336         1.326427        -0.139432
 H         0.983749         0.069204        -1.027860
 H         1.483034        -2.228076         1.644235
 H         2.457510        -1.794728         0.286584
 H         4.612652        -0.592403         1.872317
