19
Iteration:   394charge 0 multiplicity 1
 C         3.007057         2.015834         0.507933
 C         2.303617         0.889862         1.189239
 C         1.851714         0.650755         2.559557
 O         0.514874         0.204768         2.257942
 C         1.061831         0.009844         0.901414
 C         0.124369        -0.159725        -0.309569
 C         1.922388        -1.302916         1.056828
 C         2.773843        -0.400509         1.921259
 O         3.918666        -0.661075         2.629335
 H         3.737866         2.435008         1.165163
 H         3.347320         1.861587        -0.565894
 H         2.259303         2.700092         0.465102
 H         2.294395         1.121262         3.412507
 H        -0.630969        -0.975836        -0.019399
 H        -0.492302         0.666983        -0.635732
 H         0.766776        -0.437881        -1.094571
 H         1.350502        -2.122936         1.538960
 H         2.432998        -1.750580         0.151233
 H         4.820779        -0.712039         2.185408
