19
Iteration:   276charge 0 multiplicity 1
 C         2.954240         2.029601         0.580872
 C         2.331525         0.806810         1.291585
 C         1.729945         0.571317         2.642346
 O         0.458619         0.268143         2.113555
 C         1.060209        -0.066237         0.883028
 C         0.154484        -0.104831        -0.329998
 C         1.885319        -1.285627         1.158802
 C         2.770912        -0.445670         2.008694
 O         4.126492        -0.631320         2.471604
 H         3.683036         2.464088         1.246842
 H         3.419258         1.774391        -0.379815
 H         2.148851         2.822296         0.398641
 H         1.847959         1.128460         3.599908
 H        -0.265761        -1.137569        -0.268376
 H        -0.678080         0.584117        -0.313259
 H         0.707279        -0.022479        -1.225632
 H         1.281507        -2.153638         1.368209
 H         2.531867        -1.495369         0.348601
 H         4.689770        -0.300110         1.753549
