19
Iteration:  4110
 C         3.316582         1.606561         0.344356
 C         2.302132         0.791493         1.098330
 C         1.949410         0.855393         2.557165
 O         0.478653         0.520321         2.306903
 C         1.009487        -0.052933         0.981077
 C        -0.041775        -0.216935        -0.188137
 C         1.725481        -1.302855         1.311098
 C         2.705745        -0.351679         2.061471
 O         4.032472        -0.606561         2.259251
 H         4.327399         1.340098         0.660210
 H         3.343838         1.342420        -0.726523
 H         3.061353         2.718893         0.429025
 H         2.063924         1.619958         3.285778
 H        -0.705106        -1.189875        -0.020109
 H        -0.721853         0.714621        -0.347122
 H         0.641744        -0.387040        -1.074738
 H         1.081162        -2.014728         1.895632
 H         2.120445        -1.877307         0.444764
 H         4.368772        -0.897779         3.117190
