19
Iteration:  4251charge 0 multiplicity 1
 C         3.016941         1.739163         0.175759
 C         2.340475         0.779593         1.129972
 C         1.944971         0.822056         2.508656
 O         0.461209         0.507558         2.243820
 C         0.990815        -0.022339         0.971961
 C         0.003825        -0.024725        -0.201598
 C         1.805097        -1.315520         1.393298
 C         2.845181        -0.452411         2.007971
 O         4.112685        -0.837752         2.449321
 H         3.680744         2.482751         0.658865
 H         3.655195         1.220324        -0.519653
 H         2.111804         2.325078        -0.360921
 H         2.136418         1.642698         3.183208
 H        -0.888337        -0.704677         0.066317
 H        -0.186342         1.100017        -0.339543
 H         0.715149        -0.350076        -1.000590
 H         1.382663        -2.074504         2.093206
 H         2.190603        -1.948460         0.584883
 H         4.022879        -0.796280         3.419684
