19
Iteration:  3204
 C         2.913502         1.897729         0.209248
 C         2.375720         0.701603         1.106828
 C         1.928073         0.759142         2.468451
 O         0.548442         0.476358         2.175691
 C         1.103616        -0.045953         0.876047
 C         0.092797        -0.170995        -0.321090
 C         1.782165        -1.376137         1.396341
 C         2.815542        -0.376801         2.022594
 O         4.023125        -0.629633         2.685971
 H         3.526193         2.585598         0.841677
 H         3.512234         1.375266        -0.585920
 H         2.094922         2.187112        -0.443227
 H         2.215972         1.388942         3.378819
 H        -0.472247        -1.084399        -0.191870
 H        -0.751172         0.558427        -0.276002
 H         0.509570        -0.414980        -1.252686
 H         1.282651        -2.005298         2.079283
 H         2.317134        -1.908128         0.656837
 H         3.858514        -0.958720         3.615657
