19
Iteration:   983charge 0 multiplicity 1
 C         2.921762         1.991990         0.563402
 C         2.329547         0.846874         1.194131
 C         1.794735         0.555296         2.574273
 O         0.445220         0.309770         2.052698
 C         1.067958        -0.082420         0.859995
 C         0.089065        -0.109492        -0.244245
 C         2.099309        -1.300399         1.137165
 C         2.783666        -0.418115         2.016971
 O         4.030822        -0.593034         2.575994
 H         3.668591         2.539578         1.114575
 H         3.228110         1.758328        -0.435976
 H         2.001596         2.728008         0.500796
 H         1.694353         1.305078         3.380390
 H        -0.627285        -0.967597         0.055769
 H        -0.500051         0.838877        -0.413390
 H         0.596926        -0.380155        -1.226947
 H         1.550170        -2.183712         1.638028
 H         2.763368        -1.469402         0.249518
 H         4.345013        -1.515594         2.567339
