19
Iteration:  3172
 C         2.850001         1.836318         0.097600
 C         2.348877         0.786964         1.083135
 C         1.781196         0.876756         2.506537
 O         0.446252         0.459710         2.157386
 C         1.115441        -0.122696         0.939608
 C         0.236838        -0.089673        -0.240635
 C         1.905572        -1.391586         1.429117
 C         2.819492        -0.352042         2.079713
 O         4.005091        -0.767315         2.615422
 H         3.752581         2.497590         0.422470
 H         3.239654         1.226972        -0.737891
 H         2.106814         2.536754        -0.101633
 H         2.023509         1.513929         3.431730
 H        -0.358224        -0.925705        -0.050201
 H        -0.227213         0.887517        -0.411425
 H         0.776674        -0.295574        -1.090424
 H         1.572597        -2.243016         2.045049
 H         2.465437        -1.823434         0.575639
 H         4.102121        -1.053874         3.521258
