19
Iteration:  3713
 C         3.274026         1.549043         0.218015
 C         2.382267         0.757824         1.122324
 C         1.735940         0.783848         2.479472
 O         0.441270         0.307456         2.112256
 C         1.075666        -0.158634         0.847194
 C        -0.096324        -0.050217        -0.127603
 C         1.877901        -1.347680         1.399200
 C         2.723375        -0.272534         2.121575
 O         4.065974        -0.404039         2.486125
 H         3.295645         2.604294         0.679326
 H         4.339431         1.169700         0.267750
 H         3.042117         1.768314        -0.892136
 H         2.020481         1.522385         3.330724
 H        -1.071974        -0.513889         0.223888
 H        -0.208135         0.994190        -0.124164
 H         0.317282        -0.389901        -1.129359
 H         1.331943        -2.126882         2.114348
 H         2.287271        -1.932662         0.572313
 H         4.220261        -0.759015         3.363237
