19
Iteration:  3118
 C         3.128387         1.674740         0.254738
 C         2.365159         0.739764         1.131046
 C         1.788938         0.677898         2.573152
 O         0.434185         0.395587         2.183728
 C         1.076490        -0.165911         0.894107
 C         0.127346        -0.100280        -0.210178
 C         1.810265        -1.393299         1.323719
 C         2.781422        -0.413406         1.975460
 O         3.994169        -0.321183         2.537500
 H         4.266837         1.708132         0.614723
 H         3.154007         1.286816        -0.819902
 H         2.761483         2.675298         0.062745
 H         2.072831         1.411114         3.427841
 H        -0.900383        -0.307851         0.076986
 H         0.104985         1.029685        -0.355270
 H         0.470581        -0.562352        -1.105323
 H         1.116310        -2.033385         1.995318
 H         2.392759        -2.014448         0.542181
 H         4.134106        -0.685202         3.424332
