19
Iteration:  2699charge 0 multiplicity 1
 C         3.200292         1.751385         0.389272
 C         2.364589         0.833993         1.156271
 C         1.798914         0.821131         2.477726
 O         0.469133         0.372082         2.149028
 C         1.027376        -0.077111         0.909291
 C         0.051107        -0.200442        -0.165246
 C         1.848209        -1.362110         1.308703
 C         2.668371        -0.351864         2.020026
 O         4.045982        -0.561021         2.415237
 H         4.192868         1.878996         0.976933
 H         3.501789         1.348111        -0.582288
 H         2.827670         2.835800         0.108230
 H         1.897079         1.522700         3.246003
 H        -0.624499        -1.058282         0.183430
 H        -0.685587         0.630159        -0.190176
 H         0.602433        -0.485790        -1.108839
 H         1.329377        -2.102569         1.988586
 H         2.529422        -1.787597         0.517769
 H         4.045557        -0.806121         3.380439
