19
Iteration:  3965
 C         3.117998         1.721701         0.200632
 C         2.330353         0.744972         1.073349
 C         1.883066         0.822843         2.457821
 O         0.531497         0.523157         2.251175
 C         1.042309        -0.062792         0.942967
 C         0.066711        -0.118774        -0.139049
 C         1.723680        -1.436590         1.438066
 C         2.785811        -0.356225         2.015066
 O         4.029025        -0.640863         2.439640
 H         2.969002         1.582216        -0.841200
 H         2.715712         2.692838         0.421849
 H         4.234074         1.716348         0.327828
 H         1.910921         1.478250         3.326848
 H        -0.619469        -0.999033         0.078242
 H        -0.308171         0.848662        -0.438129
 H         0.830299        -0.335317        -1.031472
 H         1.135635        -2.279972         1.927946
 H         2.222297        -1.888748         0.608025
 H         3.911462        -0.780741         3.408675
