19
Iteration:   205charge 0 multiplicity 1
 C         2.964392         2.056408         0.649355
 C         2.358441         0.808484         1.203438
 C         1.779700         0.524437         2.561661
 O         0.515677         0.242507         2.172871
 C         1.233334        -0.048792         0.726841
 C        -0.014787        -0.116148        -0.190647
 C         1.949764        -1.354977         1.006992
 C         2.749107        -0.440140         1.951759
 O         3.988733        -0.501071         2.608729
 H         3.747890         2.372800         1.395093
 H         3.371742         1.976261        -0.392080
 H         2.202389         2.759460         0.636427
 H         1.817206         0.879968         3.524492
 H        -0.802303        -0.726321         0.244830
 H        -0.489169         0.924096        -0.248641
 H         0.337598        -0.436114        -1.253644
 H         1.568405        -2.400742         1.210565
 H         2.588764        -1.465621         0.001289
 H         4.715533        -0.973469         2.175990
