19
Iteration:  1401charge 0 multiplicity 1
 C         2.961380         1.840279         0.393544
 C         2.311477         0.794052         1.169676
 C         1.798596         0.601951         2.628071
 O         0.442329         0.442424         2.107527
 C         1.037279        -0.142203         0.853033
 C         0.143814        -0.151209        -0.256343
 C         1.917926        -1.382759         1.271754
 C         2.811140        -0.405222         2.006070
 O         4.075606        -0.519211         2.523689
 H         3.946521         2.145877         0.821675
 H         3.293463         1.534031        -0.545627
 H         2.215196         2.724336         0.341133
 H         2.064059         1.472436         3.331760
 H        -0.776195        -0.760637         0.018053
 H        -0.082517         0.911458        -0.505767
 H         0.589603        -0.685906        -1.090348
 H         1.289543        -2.242295         1.681616
 H         2.486059        -1.680674         0.351351
 H         4.274505        -0.124135         3.413812
