19
Iteration:  4150
 C         3.249299         1.662713         0.229764
 C         2.379010         0.784043         1.113427
 C         1.885421         0.764550         2.537012
 O         0.492125         0.480608         2.207940
 C         0.993977        -0.053774         0.927429
 C        -0.065199        -0.059637        -0.079976
 C         1.781811        -1.406399         1.376554
 C         2.724420        -0.386950         1.989922
 O         4.076562        -0.595998         2.377887
 H         3.875015         2.229573         0.919272
 H         3.814641         1.112643        -0.503620
 H         2.627123         2.499346        -0.280270
 H         2.286301         1.474045         3.289099
 H        -0.839229        -0.764664         0.227155
 H        -0.401454         0.959011        -0.017659
 H         0.390965        -0.245427        -1.120788
 H         1.004983        -1.974125         1.962942
 H         2.144665        -1.995270         0.561345
 H         3.983310        -1.171223         3.163119
