19
Iteration:   337charge 0 multiplicity 1
 C         2.893085         1.910232         0.324590
 C         2.240773         0.880013         1.201203
 C         1.658241         0.625878         2.522693
 O         0.528244        -0.057987         2.240398
 C         1.152549        -0.164073         0.848084
 C         0.160990         0.314403        -0.250877
 C         2.002763        -1.414837         1.191832
 C         2.831775        -0.394321         1.998817
 O         4.001464        -0.555509         2.659643
 H         3.846000         2.309721         0.719003
 H         3.228535         1.575130        -0.713217
 H         2.357873         2.804030         0.146769
 H         1.767560         1.351436         3.417351
 H        -0.832235        -0.223258        -0.129839
 H        -0.049325         1.381612        -0.057664
 H         0.352046         0.229424        -1.364562
 H         1.470690        -2.216640         1.726131
 H         2.686538        -1.687136         0.297079
 H         4.779412        -0.888793         2.243750
