19
Iteration:  1161charge 0 multiplicity 1
 C         2.885206         2.005298         0.410271
 C         2.412185         0.803771         1.202242
 C         1.751673         0.606656         2.509146
 O         0.402723         0.277030         2.066217
 C         1.155082        -0.119358         0.900391
 C         0.113069        -0.052105        -0.255689
 C         1.969359        -1.296100         1.254031
 C         2.807245        -0.448832         2.030927
 O         4.089504        -0.590200         2.574280
 H         3.784876         2.475740         0.828561
 H         3.270685         1.584025        -0.501420
 H         2.168476         2.759751         0.224181
 H         1.853409         1.109106         3.390963
 H        -0.523109        -0.943429        -0.167358
 H        -0.591660         0.790483        -0.033967
 H         0.514693         0.043003        -1.309117
 H         1.483109        -2.241970         1.604863
 H         2.469469        -1.579415         0.360241
 H         3.941265        -1.055008         3.446019
