19
Iteration:  3500charge 0 multiplicity 1
 C         3.243755         1.554717         0.255460
 C         2.274092         0.809556         1.181282
 C         1.799885         0.729764         2.562439
 O         0.404985         0.352124         2.230795
 C         1.029848        -0.143034         0.824501
 C         0.047883        -0.126642        -0.245425
 C         1.792782        -1.361887         1.330097
 C         2.760948        -0.350661         2.029526
 O         4.087390        -0.273213         2.512549
 H         4.331675         1.600011         0.647174
 H         3.195382         0.870587        -0.604513
 H         3.004984         2.576614         0.025316
 H         1.924534         1.304786         3.508869
 H        -0.886907        -0.413628         0.069809
 H         0.111792         0.892966        -0.762901
 H         0.476201        -0.743997        -0.972880
 H         1.308104        -2.226265         1.773480
 H         2.350430        -1.952450         0.470227
 H         4.276064        -0.572303         3.407589
