19
Iteration:  3093charge 0 multiplicity 1
 C         3.285416         1.591746         0.358725
 C         2.286107         0.764884         1.109718
 C         1.716241         0.809946         2.499941
 O         0.441476         0.346620         2.151128
 C         0.966496        -0.081452         0.870055
 C        -0.078211        -0.113106        -0.253580
 C         1.948779        -1.425111         1.382797
 C         2.772201        -0.379987         2.045159
 O         4.113641        -0.378470         2.512137
 H         4.184440         1.620422         0.981065
 H         3.528841         1.431451        -0.776936
 H         2.891258         2.638638         0.151054
 H         1.856513         1.544042         3.182564
 H        -1.031199        -0.426713         0.122601
 H        -0.332237         0.947029        -0.329158
 H         0.294977        -0.523740        -1.175970
 H         1.386112        -2.271997         1.810609
 H         2.671880        -1.720256         0.619758
 H         4.267317        -0.801073         3.354781
