19
Iteration:  1711charge 0 multiplicity 1
 C         3.055236         1.832481         0.271511
 C         2.259534         0.837692         1.082163
 C         1.774067         0.818128         2.525732
 O         0.473582         0.275686         2.224134
 C         0.997136        -0.150863         0.948976
 C         0.165409        -0.116018        -0.303498
 C         1.894938        -1.386810         1.453777
 C         2.740402        -0.301406         1.972046
 O         4.095585        -0.614808         2.522913
 H         3.915572         2.221191         0.833849
 H         3.469054         1.297787        -0.672919
 H         2.444889         2.672642        -0.117170
 H         1.839875         1.844814         2.987505
 H        -0.591834        -0.857501        -0.340817
 H        -0.199745         0.944912        -0.330635
 H         0.813869        -0.319814        -1.171392
 H         1.464921        -2.188851         2.069845
 H         2.449678        -1.907967         0.634888
 H         4.011446        -0.756644         3.457406
