19
Iteration:  3628charge 0 multiplicity 1
 C         2.943203         1.769547         0.160119
 C         2.377253         0.752291         1.078586
 C         1.776168         0.848505         2.525381
 O         0.475412         0.456282         2.152655
 C         1.053680        -0.074085         0.864547
 C         0.127209        -0.174244        -0.295431
 C         1.846396        -1.330314         1.529376
 C         2.841684        -0.253234         2.080590
 O         4.118024        -0.731196         2.585208
 H         3.655414         2.281503         0.674990
 H         3.463857         1.231027        -0.629310
 H         2.131420         2.305285        -0.393567
 H         2.039894         1.518127         3.398217
 H        -0.820962        -0.878303        -0.215430
 H        -0.294301         0.852097        -0.428960
 H         0.653070        -0.582357        -1.189038
 H         1.269645        -2.068495         2.113428
 H         2.325207        -1.834307         0.741898
 H         3.869395        -0.955875         3.513955
