19
Iteration:  3748charge 0 multiplicity 1
 C         3.175023         1.669932         0.233786
 C         2.347637         0.777417         1.070772
 C         1.814665         0.844972         2.522805
 O         0.490110         0.463721         2.219886
 C         0.989689        -0.064744         0.974653
 C         0.001769        -0.257843        -0.234233
 C         1.832540        -1.297971         1.347893
 C         2.789350        -0.357043         2.009731
 O         4.057123        -0.575949         2.544787
 H         3.026966         2.697946         0.533181
 H         4.254848         1.453390         0.458711
 H         2.993827         1.532518        -0.925667
 H         2.246946         1.484919         3.317630
 H        -0.812997        -1.125674        -0.274836
 H        -0.562636         0.718529        -0.537581
 H         0.601305        -0.384154        -1.147133
 H         1.266864        -2.088595         2.018605
 H         2.227269        -1.679082         0.430660
 H         3.961430        -0.657307         3.498685
