19
Iteration:  4240
 C         2.939591         1.719379         0.110283
 C         2.371484         0.776046         1.109348
 C         1.913958         0.845196         2.559106
 O         0.533868         0.472177         2.318256
 C         1.033652        -0.052316         0.967242
 C         0.096866         0.002374        -0.227496
 C         1.756347        -1.315379         1.319346
 C         2.793100        -0.406783         2.062276
 O         4.120623        -0.858496         2.500984
 H         3.389683         2.541984         0.689366
 H         3.627712         1.275074        -0.583899
 H         2.137094         2.277201        -0.621177
 H         2.308920         1.530750         3.301054
 H        -0.958132        -0.489537        -0.083967
 H        -0.289807         1.059639        -0.537449
 H         0.298495        -0.500662        -1.215878
 H         1.065075        -1.886778         1.971163
 H         2.184776        -1.791607         0.435314
 H         4.281737        -0.737111         3.453078
