19
Iteration:  2454
 C         3.344625         1.700937         0.356497
 C         2.323494         0.835095         1.106736
 C         1.754707         0.789675         2.560838
 O         0.384678         0.305868         2.171877
 C         1.002703        -0.110416         0.869357
 C        -0.019623        -0.170750        -0.213030
 C         1.893412        -1.339604         1.316192
 C         2.698388        -0.326834         2.095934
 O         4.067558        -0.465532         2.397721
 H         3.974742         1.953497         1.094339
 H         3.828491         1.090316        -0.315768
 H         3.097057         2.579947        -0.224911
 H         1.764489         1.255916         3.546189
 H        -0.776403        -0.900098         0.181964
 H        -0.390315         0.851959        -0.304717
 H         0.413013        -0.609036        -1.170254
 H         1.579647        -2.297569         1.777688
 H         2.492795        -1.740511         0.559097
 H         4.167755        -0.234248         3.333747
