19
Iteration:  2845
 C         3.214786         1.705645         0.454297
 C         2.290472         0.772887         1.123462
 C         1.868482         0.745739         2.482345
 O         0.476525         0.470312         2.174762
 C         1.021029        -0.028215         0.869391
 C        -0.023394        -0.267936        -0.233470
 C         1.786684        -1.352037         1.319704
 C         2.724235        -0.382426         2.003323
 O         4.112273        -0.502698         2.463121
 H         4.018085         2.339314         0.937238
 H         3.663944         1.279579        -0.471827
 H         2.537591         2.467172         0.135428
 H         2.152200         1.358655         3.296169
 H        -0.652660        -1.102311        -0.038319
 H        -0.555564         0.674925        -0.331852
 H         0.503133        -0.361393        -1.158193
 H         1.353580        -2.012231         2.000667
 H         2.273879        -1.883688         0.485113
 H         4.064689        -0.632281         3.414527
