19
Iteration:  2309
 C         3.092922         1.922273         0.300290
 C         2.285558         0.912364         1.013704
 C         1.864642         0.704569         2.490251
 O         0.524372         0.378520         2.199620
 C         1.080193        -0.117276         0.901875
 C         0.085845        -0.244502        -0.304902
 C         1.810055        -1.365098         1.435839
 C         2.732252        -0.374509         1.993456
 O         4.008043        -0.660013         2.617576
 H         3.989417         2.242692         0.926374
 H         3.358761         1.615908        -0.732435
 H         2.416638         2.810833         0.221870
 H         2.113839         1.551666         3.137287
 H        -0.736511        -1.020122        -0.114716
 H        -0.525575         0.690505        -0.655170
 H         0.802304        -0.585621        -1.140166
 H         1.390723        -2.214226         2.124728
 H         2.418292        -1.959675         0.593463
 H         4.201683         0.040435         3.308053
