19
Iteration:  3833
 C         2.980550         1.727327         0.127237
 C         2.383988         0.699603         1.111556
 C         1.864464         0.782036         2.450208
 O         0.538632         0.447342         2.174808
 C         1.010912        -0.162751         0.947844
 C         0.104393         0.041455        -0.217313
 C         1.807833        -1.404646         1.437477
 C         2.771080        -0.353420         2.044498
 O         4.077068        -0.597632         2.611269
 H         2.125012         1.879991        -0.568471
 H         3.244436         2.739836         0.491417
 H         3.817841         1.346163        -0.450688
 H         2.284566         1.423810         3.272620
 H        -0.876112        -0.273638        -0.053375
 H         0.032859         1.062517        -0.438478
 H         0.471720        -0.554374        -1.082240
 H         1.278553        -2.166306         2.105243
 H         2.197861        -1.965257         0.609053
 H         3.867427        -1.113460         3.432197
