19
Iteration:  1228
 C         2.995315         1.956478         0.487317
 C         2.329457         0.815152         1.259917
 C         1.686052         0.688457         2.587231
 O         0.419489         0.331473         2.121277
 C         1.028521        -0.085865         0.902257
 C         0.181295        -0.161898        -0.320032
 C         1.915176        -1.425457         1.226019
 C         2.822656        -0.426459         1.985580
 O         4.134102        -0.552006         2.453724
 H         3.900392         2.386341         1.018668
 H         3.307911         1.562268        -0.499517
 H         2.450352         2.810867         0.255044
 H         1.844705         0.985382         3.655399
 H        -0.815567        -0.441471         0.114364
 H        -0.083965         0.842219        -0.713641
 H         0.556222        -0.854598        -1.065508
 H         1.398564        -2.284532         1.636745
 H         2.347186        -1.827134         0.288677
 H         4.104175        -0.052097         3.275186
