19
Iteration:  2385
 C         2.891388         1.807795         0.155746
 C         2.348453         0.751338         1.085844
 C         1.842932         0.798142         2.514160
 O         0.474745         0.303478         2.185923
 C         1.077470        -0.087088         0.998694
 C         0.236958        -0.002276        -0.298662
 C         1.844466        -1.413512         1.368396
 C         2.811101        -0.348126         1.982060
 O         4.036842        -0.559152         2.703366
 H         3.791447         2.367601         0.583475
 H         3.091860         1.202429        -0.774575
 H         2.199220         2.460481        -0.219171
 H         2.131050         1.517453         3.295854
 H        -0.587435        -0.744685        -0.061732
 H        -0.204910         1.042506        -0.466948
 H         0.648777        -0.424826        -1.272277
 H         1.216104        -2.049997         1.986286
 H         2.249045        -2.066705         0.517027
 H         4.017908        -1.357354         3.226269
