19
Iteration:  2567charge 0 multiplicity 1
 C         2.850036         1.811877         0.121153
 C         2.335300         0.803149         1.075662
 C         1.908969         0.804111         2.569425
 O         0.536113         0.374280         2.256353
 C         1.050231        -0.134976         0.966935
 C         0.278618        -0.007499        -0.333595
 C         1.862023        -1.376710         1.349482
 C         2.794347        -0.348606         2.009241
 O         3.974827        -0.697541         2.646536
 H         3.668464         2.455409         0.301534
 H         2.985852         1.327750        -0.795097
 H         1.983430         2.520463         0.054358
 H         1.950675         1.284471         3.546619
 H        -0.704444        -0.536880        -0.195092
 H         0.007050         1.028622        -0.638193
 H         0.708984        -0.524357        -1.178249
 H         1.550923        -2.305069         1.985509
 H         2.216474        -2.029702         0.459807
 H         3.877096        -0.738066         3.628326
