19
Iteration:  2496
 C         3.206408         1.805740         0.329402
 C         2.311450         0.794935         1.074945
 C         1.796200         0.772881         2.482085
 O         0.424840         0.410150         2.156863
 C         1.028141        -0.062963         0.926575
 C         0.027463        -0.231207        -0.217130
 C         1.820542        -1.407763         1.352343
 C         2.766735        -0.384149         2.014439
 O         4.097842        -0.495954         2.534620
 H         4.045408         2.045948         1.114235
 H         3.789726         1.575215        -0.662898
 H         2.816082         2.811495         0.360755
 H         2.201307         1.349129         3.295512
 H        -0.659100        -1.095230         0.054618
 H        -0.658487         0.621990        -0.367471
 H         0.549956        -0.448523        -1.232922
 H         1.244310        -2.143248         1.780332
 H         2.169125        -1.780147         0.401388
 H         4.020531        -1.078903         3.346555
