19
Iteration:  1676charge 0 multiplicity 1
 C         3.001335         1.776217         0.320837
 C         2.334807         0.781950         1.180946
 C         1.840123         0.623701         2.605109
 O         0.441094         0.518134         2.127864
 C         1.113337        -0.071009         0.855976
 C         0.124479        -0.211533        -0.277155
 C         1.806049        -1.466176         1.334618
 C         2.790100        -0.424077         2.074576
 O         4.069458        -0.405524         2.521522
 H         3.792623         2.441854         0.838146
 H         3.433960         1.272796        -0.518757
 H         2.167422         2.513623        -0.073149
 H         1.945635         1.521842         3.313544
 H        -0.849894        -0.528767         0.114102
 H        -0.138512         0.785749        -0.645776
 H         0.453453        -0.734316        -1.201883
 H         1.412652        -2.210440         2.008030
 H         2.474195        -1.814763         0.482369
 H         4.384850        -1.221925         2.865846
