19
Iteration:  1954
 C         2.928312         1.920007         0.243080
 C         2.365221         0.808180         1.091505
 C         1.891353         0.616288         2.521058
 O         0.468581         0.380273         2.206927
 C         1.018065        -0.060127         0.918356
 C         0.175782        -0.169444        -0.307023
 C         1.868887        -1.353780         1.353137
 C         2.845277        -0.482312         2.023251
 O         4.011379        -0.539257         2.634389
 H         3.879558         2.256456         0.587150
 H         3.328190         1.332478        -0.723916
 H         2.308840         2.703680        -0.104067
 H         2.052891         1.428957         3.366905
 H        -0.456539        -1.093433        -0.321866
 H        -0.536739         0.668313        -0.303080
 H         0.811385        -0.127120        -1.226378
 H         1.236523        -2.119039         1.920292
 H         2.215974        -1.661739         0.382499
 H         3.736813        -0.266008         3.555757
