19
Iteration:  2794charge 0 multiplicity 1
 C         2.857259         1.710047         0.151114
 C         2.311181         0.782539         1.156825
 C         1.838462         0.798556         2.519299
 O         0.499203         0.403468         2.239377
 C         1.098341        -0.145674         0.911317
 C         0.144547         0.008966        -0.313682
 C         1.898561        -1.338960         1.301660
 C         2.862971        -0.313597         2.016245
 O         4.040820        -0.681172         2.664021
 H         3.632003         2.221681         0.605172
 H         3.354509         1.294620        -0.795467
 H         2.218929         2.547844        -0.188311
 H         1.932165         1.409313         3.342452
 H        -0.837766        -0.495619        -0.035315
 H        -0.153889         1.077830        -0.351336
 H         0.541119        -0.398355        -1.242127
 H         1.453654        -2.100972         2.116621
 H         2.512270        -1.840986         0.545821
 H         3.942584        -1.366373         3.348942
