19
Iteration:   708
 C         2.961859         1.853569         0.390064
 C         2.385431         0.809840         1.234676
 C         1.705223         0.546494         2.538253
 O         0.447433         0.176277         2.087466
 C         1.046800        -0.063387         0.854914
 C         0.075488         0.103972        -0.243958
 C         1.977325        -1.328791         1.152404
 C         2.812783        -0.491665         2.083757
 O         4.110600        -0.411075         2.656145
 H         3.833908         2.428071         0.789084
 H         3.236789         1.402704        -0.518660
 H         2.100722         2.620579         0.066458
 H         1.742376         0.780828         3.670085
 H        -0.752111        -0.688124        -0.086438
 H        -0.368217         1.117680        -0.213934
 H         0.468609        -0.022663        -1.257455
 H         1.486477        -2.245555         1.485354
 H         2.654038        -1.581323         0.276298
 H         4.460175        -1.288178         2.486444
