19
Iteration:  4997charge 0 multiplicity 1
 C         3.071950         1.867272         0.261480
 C         2.396747         0.704450         0.986928
 C         1.862388         0.884566         2.366029
 O         0.520249         0.450654         2.118545
 C         1.049837        -0.182737         0.803288
 C         0.087132        -0.347316        -0.247207
 C         1.770707        -1.374743         1.479810
 C         2.733189        -0.410339         2.172865
 O         4.041971        -0.443041         2.672896
 H         2.326277         2.210263        -0.532169
 H         3.381939         2.669642         0.939091
 H         3.944810         1.640266        -0.301707
 H         2.223788         1.445560         3.242430
 H        -0.616089        -1.128807         0.213584
 H        -0.505830         0.482033        -0.322575
 H         0.393341        -0.538623        -1.305768
 H         0.904211        -2.002846         1.897873
 H         2.536146        -1.939664         0.724849
 H         4.123802        -0.719366         3.609736
