19
Iteration:  4677charge 0 multiplicity 1
 C         3.153450         1.680915         0.216147
 C         2.275280         0.765782         1.105443
 C         1.835558         0.841181         2.523710
 O         0.488359         0.446319         2.215433
 C         0.987575        -0.093128         0.917129
 C         0.013583        -0.184564        -0.245641
 C         1.858062        -1.342521         1.296384
 C         2.743496        -0.385830         2.111546
 O         4.111536        -0.565415         2.557026
 H         2.575309         2.492503        -0.161787
 H         3.991034         2.125922         0.641837
 H         3.488578         1.202293        -0.773796
 H         2.022153         1.624486         3.272736
 H        -0.668161        -1.055516        -0.083888
 H        -0.579995         0.837294        -0.251649
 H         0.634661        -0.289187        -1.126399
 H         1.467573        -2.142174         1.828786
 H         2.325890        -1.725314         0.380025
 H         4.107875        -0.616950         3.530990
