19
Iteration:  2820
 C         3.134166         1.812009         0.162153
 C         2.333179         0.828517         1.126845
 C         1.831084         0.797375         2.517569
 O         0.472143         0.345414         2.184564
 C         1.036219        -0.082034         0.971039
 C         0.108270        -0.134491        -0.217941
 C         1.842692        -1.366875         1.352719
 C         2.730605        -0.344204         2.054004
 O         4.010385        -0.654559         2.522697
 H         3.929336         2.505995         0.741911
 H         3.660314         1.476210        -0.722434
 H         2.384049         2.676596        -0.115219
 H         1.839098         1.521210         3.400371
 H        -0.711436        -0.873575         0.053868
 H        -0.376274         0.873262        -0.290007
 H         0.647807        -0.421754        -1.210753
 H         1.533527        -2.045836         2.028815
 H         2.399376        -1.834872         0.554901
 H         4.144112        -1.129545         3.353777
