19
Iteration:  3577charge 0 multiplicity 1
 C         3.010911         1.820042         0.211613
 C         2.395833         0.697053         1.069391
 C         1.924254         0.701431         2.450489
 O         0.538859         0.497900         2.139045
 C         0.950011        -0.106970         0.919529
 C         0.064994        -0.258950        -0.309205
 C         1.821980        -1.291052         1.409994
 C         2.809611        -0.410964         2.018742
 O         4.042509        -0.501735         2.709683
 H         4.209097         1.880949         0.295432
 H         2.686914         1.683458        -0.848583
 H         2.505704         2.755714         0.527678
 H         2.332337         1.469306         3.183290
 H        -0.523692        -1.086652        -0.246885
 H        -0.657650         0.616844        -0.250793
 H         0.614478        -0.290398        -1.195430
 H         1.146222        -1.863975         2.106547
 H         2.070651        -2.173733         0.668011
 H         3.957136        -0.803796         3.643996
