19
Iteration:  2724charge 0 multiplicity 1
 C         3.100591         1.799448         0.220560
 C         2.325361         0.756702         1.057554
 C         1.787437         0.760107         2.525337
 O         0.474729         0.356881         2.248654
 C         1.002015        -0.168127         0.896163
 C         0.061886        -0.076320        -0.300294
 C         1.882866        -1.345207         1.365969
 C         2.722641        -0.307984         2.046659
 O         4.115571        -0.632296         2.546501
 H         4.042905         2.033143         0.802820
 H         3.412931         1.593174        -0.784532
 H         2.604011         2.710559         0.257835
 H         1.885346         1.493959         3.417883
 H        -0.842713        -0.573254        -0.172353
 H        -0.200761         0.955752        -0.295003
 H         0.591283        -0.351329        -1.201759
 H         1.326712        -2.055400         2.175437
 H         2.441950        -1.885160         0.506699
 H         4.067351        -0.616683         3.533346
