19
Iteration:  2669charge 0 multiplicity 1
 C         3.318038         1.762595         0.416506
 C         2.427214         0.871594         1.157277
 C         1.802489         0.731007         2.485210
 O         0.389162         0.458754         2.183720
 C         0.928743        -0.107217         0.894014
 C        -0.064864        -0.294436        -0.218559
 C         1.774950        -1.330018         1.267448
 C         2.738907        -0.414344         2.002969
 O         4.131193        -0.432529         2.481598
 H         4.231454         1.916075         1.061173
 H         3.709434         1.204052        -0.371082
 H         3.002944         2.582312        -0.034474
 H         2.155580         1.297560         3.409948
 H        -0.612487        -1.100793         0.084161
 H        -0.725061         0.505743        -0.267373
 H         0.331386        -0.523969        -1.203981
 H         1.271221        -2.241167         1.858976
 H         2.448187        -1.571404         0.375181
 H         4.118069        -1.175179         3.089987
