19
Iteration:    70charge 0 multiplicity 1
 C         3.033233         2.286526         0.620276
 C         2.264450         0.986200         1.109884
 C         1.823625         0.607602         2.515753
 O         0.532630         0.107561         2.237752
 C         1.121144        -0.189343         0.781378
 C         0.084796        -0.159848        -0.265684
 C         1.966083        -1.293716         1.149866
 C         2.759916        -0.353757         1.973736
 O         3.913988        -0.831180         2.519164
 H         3.719966         2.580001         1.393076
 H         3.547083         2.146521        -0.273268
 H         2.358309         3.255155         0.459764
 H         1.957540         1.340583         3.357612
 H        -0.235371        -1.187686        -0.688448
 H        -0.728765         0.394711         0.229706
 H         0.333049         0.367056        -1.179302
 H         1.610831        -2.218498         1.782758
 H         2.499239        -1.689937         0.267907
 H         4.516753        -0.110160         2.624570
