19
Iteration:  4792charge 0 multiplicity 1
 C         3.048611         1.823346         0.180738
 C         2.396851         0.751531         1.050845
 C         1.841615         0.883107         2.475832
 O         0.510044         0.355229         2.220907
 C         1.074393        -0.121742         0.838921
 C         0.011701        -0.215377        -0.276683
 C         1.826719        -1.248606         1.431523
 C         2.761502        -0.302978         2.095494
 O         4.071133        -0.653912         2.633310
 H         4.031092         2.327950         0.591393
 H         3.319401         1.190504        -0.797940
 H         2.245512         2.486278        -0.100409
 H         2.067761         1.708707         3.159341
 H        -0.709167        -1.006031         0.157224
 H        -0.484371         0.630648        -0.743845
 H         0.509199        -0.800128        -1.151453
 H         1.140947        -1.987532         1.981991
 H         2.400978        -1.888294         0.790774
 H         4.015935        -0.783308         3.597847
