19
Iteration:  1106charge 0 multiplicity 1
 C         2.980977         1.932177         0.354468
 C         2.261004         0.883372         1.162579
 C         1.729806         0.655944         2.630564
 O         0.472901         0.114871         2.206090
 C         1.033323        -0.152047         0.957720
 C         0.187488         0.016297        -0.289502
 C         1.980490        -1.350342         1.136730
 C         2.813966        -0.300231         1.953372
 O         4.003998        -0.584689         2.668602
 H         3.756843         2.387695         0.971173
 H         3.374531         1.566010        -0.582545
 H         2.363906         2.718043        -0.050878
 H         1.782074         1.162342         3.564523
 H        -0.429283        -0.852561        -0.528271
 H        -0.427844         0.946264        -0.308721
 H         0.899880         0.036559        -1.188979
 H         1.395879        -2.123911         1.740737
 H         2.602732        -1.625182         0.315172
 H         4.568006        -1.000919         1.925752
