19
Iteration:  3829
 C         2.944419         1.738660         0.136917
 C         2.408931         0.699599         1.084807
 C         1.860804         0.795280         2.422314
 O         0.537531         0.464283         2.181036
 C         0.995408        -0.182090         0.970697
 C         0.107096         0.045342        -0.233529
 C         1.781254        -1.416503         1.435514
 C         2.798022        -0.332883         2.053125
 O         4.092412        -0.629340         2.627419
 H         2.143405         1.920047        -0.631555
 H         3.275423         2.661067         0.634466
 H         3.738961         1.279014        -0.416062
 H         2.098535         1.424873         3.324662
 H        -0.969924        -0.356335        -0.109343
 H        -0.024290         1.208586        -0.540243
 H         0.435654        -0.517850        -1.201112
 H         1.432438        -2.042568         2.207342
 H         2.365206        -2.002529         0.642105
 H         4.047818        -1.172726         3.429102
