19
Iteration:  3556
 C         3.105037         1.768274         0.156355
 C         2.375589         0.807858         1.125676
 C         1.787292         0.830786         2.501920
 O         0.460659         0.416775         2.178863
 C         1.051743        -0.166041         0.836618
 C         0.081312        -0.183150        -0.228718
 C         1.828256        -1.386168         1.429539
 C         2.799484        -0.339010         2.030811
 O         4.034224        -0.538475         2.603402
 H         4.223243         1.481972         0.399823
 H         2.902723         1.685084        -0.917012
 H         2.871757         2.770673         0.413498
 H         1.955447         1.479653         3.415479
 H        -0.479314        -1.028126        -0.025572
 H        -0.660038         0.658204        -0.297595
 H         0.553327        -0.499214        -1.135060
 H         1.236227        -2.157998         1.970045
 H         2.431857        -1.939323         0.559791
 H         4.069634        -0.560527         3.581928
