19
Iteration:  1814
 C         3.073283         1.894070         0.249865
 C         2.266868         0.840576         1.041996
 C         1.729328         0.794874         2.488014
 O         0.489541         0.245203         2.234950
 C         1.106015        -0.179066         0.861039
 C         0.147656        -0.083796        -0.284905
 C         1.854546        -1.412972         1.409284
 C         2.778120        -0.286284         2.057185
 O         4.079957        -0.562248         2.576635
 H         3.896156         2.273788         0.894776
 H         3.482531         1.561731        -0.756950
 H         2.401421         2.735923         0.073152
 H         1.624253         1.347964         3.497426
 H        -0.603081        -0.856553         0.081281
 H        -0.367736         0.839191        -0.383074
 H         0.574188        -0.425075        -1.235662
 H         1.308040        -2.005163         2.144928
 H         2.254894        -1.822083         0.512301
 H         4.218460        -1.457067         3.025924
