19
Iteration:  1922
 C         2.959547         1.886619         0.247386
 C         2.391872         0.758581         1.101369
 C         1.775506         0.797735         2.496515
 O         0.439228         0.338015         2.128299
 C         1.123112        -0.171754         0.884877
 C         0.059457        -0.141488        -0.208060
 C         1.977717        -1.290723         1.291171
 C         2.810707        -0.359183         2.084648
 O         4.031833        -0.691369         2.662683
 H         3.802457         2.303043         0.770980
 H         3.337370         1.483026        -0.817344
 H         2.261826         2.650983        -0.001851
 H         1.686524         1.477289         3.446448
 H        -0.837499        -0.719556         0.094925
 H        -0.190946         0.912728        -0.262352
 H         0.326077        -0.518077        -1.204704
 H         1.502288        -2.243093         1.589874
 H         2.493949        -1.562156         0.394236
 H         4.276281         0.028839         3.272138
