19
Iteration:  4592
 C         2.953804         1.754525         0.163387
 C         2.336829         0.752500         1.145966
 C         1.902692         0.881875         2.564798
 O         0.527289         0.440445         2.221814
 C         1.093167        -0.050479         0.888086
 C         0.149728        -0.146016        -0.256581
 C         1.723518        -1.342054         1.334879
 C         2.742523        -0.384606         2.119546
 O         4.071699        -0.669059         2.511860
 H         2.350354         1.716486        -0.769479
 H         3.039809         2.789307         0.528492
 H         3.894342         1.246851        -0.123428
 H         2.229753         1.487564         3.417494
 H        -0.791416        -0.689166         0.015485
 H        -0.155251         0.775400        -0.672386
 H         0.626396        -0.719693        -1.036134
 H         1.344631        -2.130806         2.011292
 H         2.489826        -1.733705         0.602505
 H         3.930758        -0.741967         3.477305
