19
Iteration:  2800
 C         2.884110         1.751200         0.164279
 C         2.337670         0.785706         1.125208
 C         1.808837         0.792428         2.492735
 O         0.474368         0.390274         2.235493
 C         1.101039        -0.165415         0.908686
 C         0.108163        -0.002604        -0.261674
 C         1.923594        -1.331218         1.371722
 C         2.857314        -0.271182         1.993559
 O         4.032764        -0.701073         2.629590
 H         3.833196         2.259710         0.660862
 H         3.383383         1.105757        -0.543131
 H         2.301366         2.589171        -0.214200
 H         2.032442         1.423972         3.423824
 H        -0.733809        -0.636461        -0.089029
 H        -0.104294         1.045923        -0.458176
 H         0.636566        -0.387452        -1.159162
 H         1.291922        -2.048078         1.844379
 H         2.504947        -1.815415         0.551948
 H         3.859876        -1.342479         3.320800
