19
Iteration:  2717charge 0 multiplicity 1
 C         3.184832         1.793481         0.280717
 C         2.308553         0.776703         1.014438
 C         1.744318         0.815828         2.555241
 O         0.451391         0.350790         2.243627
 C         1.058458        -0.187158         0.888657
 C         0.066947        -0.124580        -0.255854
 C         1.860995        -1.357680         1.378735
 C         2.777878        -0.299140         2.069839
 O         4.074857        -0.626937         2.498524
 H         4.073934         2.003069         0.769441
 H         3.399123         1.688748        -0.854261
 H         2.538496         2.724092         0.164890
 H         2.011818         1.445303         3.387760
 H        -0.905344        -0.704296        -0.166502
 H        -0.295674         0.946048        -0.254627
 H         0.535514        -0.339365        -1.209974
 H         1.223556        -2.073669         1.857054
 H         2.259452        -1.707492         0.467129
 H         4.084661        -0.652202         3.492975
