19
Iteration:  3359
 C         2.964974         1.840726         0.181276
 C         2.340367         0.758578         1.022373
 C         1.818228         0.810132         2.444059
 O         0.510636         0.422575         2.090395
 C         1.094413        -0.168260         0.907116
 C         0.164033        -0.121039        -0.206384
 C         1.869730        -1.425927         1.453306
 C         2.765901        -0.342770         2.126554
 O         3.994909        -0.619011         2.622630
 H         4.071600         2.181122         0.493546
 H         2.999746         1.291730        -0.767441
 H         2.360186         2.696299         0.117855
 H         1.903156         1.374778         3.324532
 H        -0.704372        -0.773052        -0.107858
 H        -0.261238         1.022329        -0.222443
 H         0.613130        -0.256322        -1.197789
 H         1.343708        -2.044707         2.098086
 H         2.502965        -2.130892         0.876392
 H         4.238620        -0.509700         3.542726
