19
Iteration:   278charge 0 multiplicity 1
 C         2.947476         2.012014         0.572820
 C         2.325692         0.790796         1.310903
 C         1.733920         0.570510         2.648238
 O         0.454175         0.280404         2.118806
 C         1.066258        -0.078454         0.896919
 C         0.152868        -0.101391        -0.335572
 C         1.881559        -1.285493         1.132333
 C         2.770687        -0.435403         2.005746
 O         4.134667        -0.620537         2.479012
 H         3.690164         2.494647         1.244186
 H         3.375853         1.735328        -0.352657
 H         2.128702         2.855516         0.379762
 H         1.863575         1.064123         3.558745
 H        -0.219261        -1.112369        -0.266232
 H        -0.675929         0.665135        -0.355378
 H         0.699444        -0.008786        -1.304846
 H         1.251021        -2.154208         1.365720
 H         2.538465        -1.550527         0.353060
 H         4.751814        -0.299804         1.752348
