19
Iteration:  4243
 C         2.956562         1.724627         0.120386
 C         2.358754         0.778368         1.130280
 C         1.925600         0.848226         2.547470
 O         0.502006         0.478745         2.297646
 C         1.026795        -0.041697         0.979565
 C         0.074346        -0.013688        -0.220333
 C         1.767445        -1.301448         1.323748
 C         2.803128        -0.438181         2.048155
 O         4.128722        -0.856974         2.490634
 H         3.410326         2.559404         0.724776
 H         3.658779         1.225151        -0.635386
 H         2.210150         2.291859        -0.517054
 H         2.309221         1.619283         3.219914
 H        -0.999910        -0.550823        -0.099813
 H        -0.276310         1.097225        -0.507818
 H         0.367188        -0.448929        -1.199713
 H         1.207576        -1.861596         2.030964
 H         2.207427        -1.878617         0.480871
 H         4.237353        -0.755716         3.454756
