19
Iteration:  4345charge 0 multiplicity 1
 C         3.266091         1.542745         0.190268
 C         2.355505         0.816393         1.116313
 C         1.818005         0.881918         2.564462
 O         0.494520         0.359058         2.218605
 C         1.100216        -0.028607         0.977381
 C        -0.065675        -0.061153        -0.095789
 C         1.829586        -1.319871         1.301472
 C         2.711443        -0.355414         2.052249
 O         4.006837        -0.594873         2.384353
 H         4.282853         1.083273         0.153020
 H         2.843168         1.583466        -0.860373
 H         3.314887         2.491800         0.605701
 H         1.877617         1.415623         3.528612
 H        -0.863521        -0.739907         0.234388
 H        -0.416343         0.921895        -0.222746
 H         0.360765        -0.397848        -1.097283
 H         1.194969        -2.102427         1.695527
 H         2.329749        -1.687235         0.416158
 H         4.239326        -0.576370         3.329999
