19
Iteration:  1926
 C         2.957213         1.850987         0.252598
 C         2.387394         0.754034         1.099438
 C         1.784335         0.824815         2.533836
 O         0.456010         0.361017         2.135250
 C         1.105678        -0.157409         0.858812
 C         0.075030        -0.155615        -0.219383
 C         1.978512        -1.323976         1.279699
 C         2.831234        -0.351960         2.067166
 O         4.019767        -0.675944         2.664925
 H         3.848164         2.303965         0.781170
 H         3.270032         1.594803        -0.718408
 H         2.123499         2.592425         0.010314
 H         1.714328         1.320285         3.505141
 H        -0.819062        -0.742765         0.030710
 H        -0.217294         0.893226        -0.119890
 H         0.340376        -0.541947        -1.212109
 H         1.381734        -2.190025         1.554548
 H         2.499565        -1.613719         0.324802
 H         4.186213         0.050453         3.286859
