19
Iteration:   985
 C         2.919127         1.991773         0.574312
 C         2.316032         0.837400         1.195620
 C         1.771290         0.552018         2.575326
 O         0.452330         0.322450         2.052609
 C         1.080808        -0.073789         0.835420
 C         0.078114        -0.128889        -0.230841
 C         2.106629        -1.299334         1.129775
 C         2.794706        -0.419681         2.018640
 O         4.034867        -0.597095         2.581521
 H         3.702146         2.513627         1.125733
 H         3.220707         1.797615        -0.500205
 H         2.016586         2.693141         0.472172
 H         1.673040         1.346823         3.442008
 H        -0.610323        -0.904751         0.064282
 H        -0.422140         0.844605        -0.384467
 H         0.604228        -0.389118        -1.209038
 H         1.513643        -2.130536         1.619525
 H         2.727905        -1.489581         0.294278
 H         4.348346        -1.476422         2.460501
