19
Iteration:  4704charge 0 multiplicity 1
 C         3.242126         1.544202         0.185506
 C         2.249644         0.822206         1.154014
 C         1.699683         0.746411         2.568623
 O         0.418070         0.337632         2.238873
 C         1.030485        -0.111700         0.934103
 C         0.135629        -0.065770        -0.210877
 C         1.930424        -1.295733         1.403066
 C         2.743018        -0.317479         2.007466
 O         4.015047        -0.471062         2.412573
 H         3.155698         2.696923        -0.060471
 H         4.409192         1.471048         0.348458
 H         2.997336         1.247454        -0.810039
 H         1.869310         1.394823         3.419921
 H        -0.711033        -0.699231         0.167349
 H        -0.195946         0.891546        -0.303295
 H         0.656937        -0.552081        -1.095133
 H         1.548896        -2.036931         2.255146
 H         2.286850        -1.780093         0.473662
 H         4.040705        -0.432802         3.385792
