19
Iteration:   401charge 0 multiplicity 1
 C         3.027970         2.052535         0.513168
 C         2.277682         0.922011         1.143430
 C         1.889353         0.613702         2.565285
 O         0.536949         0.211487         2.256280
 C         1.011376        -0.027581         0.856715
 C         0.118225        -0.206101        -0.313210
 C         1.879455        -1.247157         1.158490
 C         2.820219        -0.373171         1.923307
 O         3.912924        -0.705753         2.584004
 H         3.749088         2.321768         1.342802
 H         3.513044         1.832787        -0.470313
 H         2.230017         2.926643         0.533407
 H         1.874468         1.131710         3.588564
 H        -0.493308        -1.108025        -0.206736
 H        -0.321388         0.774197        -0.575363
 H         0.794276        -0.514812        -1.182714
 H         1.405184        -2.049683         1.721553
 H         2.348614        -1.642615         0.223834
 H         4.772157        -0.654233         2.129123
