19
Iteration:  2929charge 0 multiplicity 1
 C         3.079116         1.738499         0.201816
 C         2.383796         0.781295         1.174704
 C         1.775388         0.759984         2.573230
 O         0.430182         0.405768         2.179467
 C         1.047087        -0.035906         0.949766
 C         0.079635        -0.120056        -0.214572
 C         1.909551        -1.394747         1.273632
 C         2.780247        -0.403749         2.040343
 O         4.031049        -0.516721         2.570620
 H         4.080500         1.780330         0.507320
 H         3.076553         1.152658        -0.655758
 H         2.624715         2.594651        -0.270314
 H         2.151539         1.374639         3.349945
 H        -0.944027        -0.515083        -0.097286
 H        -0.116925         0.922529        -0.520484
 H         0.638045        -0.620694        -1.081506
 H         1.566892        -2.408219         1.775346
 H         2.328207        -1.592188         0.234627
 H         3.922449        -0.882660         3.485912
