19
Iteration:   935charge 0 multiplicity 1
 C         2.907042         1.986897         0.451941
 C         2.230734         0.826368         1.168535
 C         1.798447         0.605632         2.631877
 O         0.458406         0.044711         2.174317
 C         1.049509        -0.046928         0.896596
 C         0.205643         0.072371        -0.383764
 C         1.996799        -1.377598         1.275194
 C         2.796592        -0.367038         1.942345
 O         4.015562        -0.615877         2.536572
 H         3.700817         2.475266         1.074604
 H         3.395847         1.501295        -0.421709
 H         2.287420         2.786436         0.101909
 H         2.093951         1.037603         3.592428
 H        -0.363137        -0.918214        -0.530066
 H        -0.434505         0.956392        -0.270473
 H         0.891791         0.358367        -1.151314
 H         1.455226        -2.154274         1.813142
 H         2.528028        -1.556788         0.276584
 H         4.405113         0.163789         3.057902
