19
Iteration:  4322charge 0 multiplicity 1
 C         3.388208         1.604797         0.315116
 C         2.297412         0.840298         1.076341
 C         1.836642         0.743340         2.514134
 O         0.448750         0.526124         2.231942
 C         1.003632        -0.111961         0.977054
 C        -0.136063        -0.120605        -0.093170
 C         1.833388        -1.385066         1.344498
 C         2.730359        -0.349894         1.967935
 O         4.066779        -0.535024         2.371479
 H         4.422387         1.156822         0.354624
 H         2.989589         1.456231        -0.752352
 H         3.398992         2.609776         0.534251
 H         2.239899         1.393238         3.296642
 H        -0.867626        -0.948952         0.000980
 H        -0.604415         0.854576        -0.087129
 H         0.372505        -0.196022        -1.101314
 H         1.325053        -2.170885         1.837163
 H         2.355069        -1.787605         0.482045
 H         4.041013        -0.936993         3.263749
