19
Iteration:   769charge 0 multiplicity 1
 C         2.909367         2.096823         0.453921
 C         2.198693         0.889510         1.170295
 C         1.807726         0.637579         2.580575
 O         0.504584         0.178773         2.309790
 C         1.036000        -0.116096         0.870370
 C         0.235476        -0.062866        -0.424945
 C         1.942324        -1.396656         1.244711
 C         2.758595        -0.388663         1.959674
 O         4.035025        -0.717179         2.481532
 H         3.614731         2.424784         1.227435
 H         3.462722         1.727234        -0.486320
 H         2.379738         2.940212         0.280400
 H         1.817048         1.303168         3.471642
 H        -0.482456        -0.833018        -0.549102
 H        -0.141536         0.974908        -0.505680
 H         1.071019        -0.080110        -1.198440
 H         1.248594        -2.032008         1.846128
 H         2.721958        -1.795236         0.599209
 H         4.377672        -0.022568         3.107676
