19
Iteration:  2123
 C         2.980016         1.932069         0.244747
 C         2.396611         0.853988         1.058546
 C         1.813869         0.798372         2.472583
 O         0.527485         0.402900         2.239093
 C         1.080281        -0.193764         0.904550
 C         0.123252        -0.286003        -0.293718
 C         1.853534        -1.346831         1.314417
 C         2.790816        -0.356094         2.013999
 O         3.977276        -0.705658         2.674288
 H         3.774133         2.607639         0.765493
 H         3.313697         1.635500        -0.758564
 H         2.175632         2.778313         0.231556
 H         2.085088         1.344772         3.318946
 H        -0.796262        -0.862943        -0.215280
 H        -0.292671         0.723309        -0.570740
 H         0.758313        -0.439072        -1.168235
 H         1.393652        -1.937584         2.131492
 H         2.291161        -1.842027         0.358673
 H         4.130128        -0.067983         3.424171
