19
Iteration:  3080charge 0 multiplicity 1
 C         3.329862         1.660202         0.365691
 C         2.339064         0.755015         1.088987
 C         1.754733         0.857516         2.492398
 O         0.389913         0.322716         2.198360
 C         1.035536        -0.218169         0.839097
 C        -0.103964        -0.129898        -0.196695
 C         1.907067        -1.331397         1.283417
 C         2.740725        -0.257355         2.145160
 O         4.091532        -0.451049         2.458589
 H         4.202120         1.712517         0.926394
 H         3.646891         1.010920        -0.464387
 H         3.017054         2.736094         0.244483
 H         1.803576         1.681976         3.129630
 H        -0.888436        -0.832234         0.042656
 H        -0.362058         0.863198        -0.429846
 H         0.231746        -0.526518        -1.200792
 H         1.474023        -2.093070         1.865359
 H         2.432670        -1.757523         0.491431
 H         4.066712        -0.839791         3.373260
