19
Iteration:   724
 C         2.859718         1.832378         0.391481
 C         2.291807         0.837238         1.344984
 C         1.749567         0.548076         2.755489
 O         0.413247         0.266132         2.092670
 C         1.166950        -0.124263         0.817319
 C         0.159813         0.073441        -0.321158
 C         1.985653        -1.393852         1.125048
 C         2.797280        -0.379747         2.032023
 O         4.115048        -0.472046         2.532811
 H         3.664532         2.430853         0.791973
 H         3.191784         1.202027        -0.495273
 H         2.154525         2.472796         0.055849
 H         1.858923         1.127672         3.612091
 H        -0.597055        -0.651033        -0.235484
 H        -0.268199         1.082266        -0.185219
 H         0.541252         0.068943        -1.357834
 H         1.454695        -2.227797         1.619999
 H         2.446977        -1.658501         0.203734
 H         4.340654        -1.343658         2.952957
