19
Iteration:  3796
 C         2.948124         1.792153         0.195128
 C         2.446643         0.766367         1.046025
 C         1.868977         0.822724         2.441609
 O         0.515441         0.498187         2.154391
 C         1.049989        -0.162837         0.956766
 C         0.166197        -0.098019        -0.208987
 C         1.753328        -1.373828         1.482851
 C         2.770088        -0.328849         2.069814
 O         4.032342        -0.711819         2.536574
 H         2.060920         2.405176        -0.144296
 H         3.720374         2.463107         0.560468
 H         3.334655         1.303004        -0.680393
 H         2.076563         1.564537         3.229566
 H        -0.661875        -0.879962        -0.014776
 H        -0.357095         0.969407        -0.327434
 H         0.725503        -0.354684        -1.184069
 H         1.343835        -1.960442         2.255991
 H         2.355848        -1.994811         0.757090
 H         3.968703        -1.180468         3.401353
