19
Iteration:  1937charge 0 multiplicity 1
 C         2.927839         1.786511         0.277829
 C         2.356609         0.799687         1.148872
 C         1.818643         0.768294         2.563454
 O         0.538074         0.425317         2.143676
 C         1.089839        -0.099454         0.859003
 C         0.093866        -0.156758        -0.250852
 C         1.930720        -1.454371         1.212413
 C         2.782033        -0.334082         1.985495
 O         3.997434        -0.600468         2.679028
 H         3.735959         2.431013         0.735499
 H         3.226354         1.448935        -0.676786
 H         2.065913         2.537807         0.264521
 H         2.177909         1.123687         3.519446
 H        -0.600520        -0.963351         0.036440
 H        -0.515719         0.727599        -0.430184
 H         0.637572        -0.294557        -1.193264
 H         1.422335        -2.114828         1.883110
 H         2.550408        -1.888587         0.385115
 H         4.107322         0.001876         3.466688
