19
Iteration:  3323
 C         3.146476         1.607326         0.258375
 C         2.255199         0.773660         1.153049
 C         1.794452         0.816598         2.525823
 O         0.481457         0.336589         2.171868
 C         0.992068        -0.144239         0.865830
 C         0.084599        -0.085440        -0.299985
 C         1.911859        -1.380593         1.346335
 C         2.717072        -0.343631         2.075634
 O         4.105347        -0.379269         2.593718
 H         4.176957         1.494004         0.489802
 H         2.981064         1.272164        -0.809903
 H         2.784663         2.671903         0.180729
 H         2.065998         1.462528         3.432825
 H        -0.967958        -0.453139         0.005581
 H        -0.000414         1.011642        -0.722026
 H         0.496775        -0.818214        -1.029642
 H         1.344109        -2.076958         2.054553
 H         2.271916        -1.858527         0.442238
 H         4.005867        -1.010376         3.317733
