19
Iteration:   758
 C         2.924335         2.058278         0.414861
 C         2.187223         0.902138         1.175212
 C         1.811176         0.677771         2.613146
 O         0.454976         0.112057         2.265062
 C         1.001784        -0.194193         0.938699
 C         0.315078        -0.019431        -0.387947
 C         1.879473        -1.327787         1.227226
 C         2.785307        -0.350285         2.046916
 O         4.068643        -0.697471         2.441723
 H         3.747460         2.439340         1.035637
 H         3.504187         1.703171        -0.523032
 H         2.324667         2.814141         0.105621
 H         2.067853         1.379897         3.413484
 H        -0.455881        -0.665618        -0.714727
 H        -0.150944         0.982215        -0.380997
 H         1.137398        -0.110108        -1.164541
 H         1.513344        -2.289777         1.652306
 H         2.347273        -1.673666         0.288044
 H         4.094984        -0.261065         3.355491
