19
Iteration:   946
 C         2.900417         1.993683         0.471008
 C         2.226513         0.919098         1.187944
 C         1.814925         0.569849         2.536377
 O         0.463621         0.064075         2.260572
 C         1.082356        -0.111679         0.847173
 C         0.237945         0.052007        -0.337272
 C         1.915367        -1.331814         1.157018
 C         2.822755        -0.333495         1.962339
 O         4.045067        -0.629965         2.555306
 H         3.701405         2.372576         1.146321
 H         3.463890         1.594969        -0.399094
 H         2.287305         2.798383         0.109230
 H         1.940427         1.261120         3.338524
 H        -0.329520        -0.933827        -0.505187
 H        -0.541379         0.813718        -0.288616
 H         0.825798         0.112672        -1.227683
 H         1.472399        -2.056554         1.833050
 H         2.379574        -1.997972         0.364096
 H         4.024666        -0.089448         3.390175
