19
Iteration:  4766charge 0 multiplicity 1
 C         3.130533         1.732658         0.171607
 C         2.302012         0.767603         1.039328
 C         1.768969         0.776002         2.510143
 O         0.468941         0.459611         2.108201
 C         1.023169        -0.227801         0.969894
 C         0.101015        -0.086438        -0.148461
 C         1.904971        -1.430726         1.463608
 C         2.753317        -0.335248         1.965996
 O         4.055553        -0.464349         2.578870
 H         3.621481         2.461794         0.816409
 H         3.844343         1.138516        -0.364737
 H         2.451245         2.193309        -0.600778
 H         1.963343         1.234477         3.481042
 H        -0.892904        -0.583543         0.185829
 H        -0.043277         0.963256        -0.508796
 H         0.458037        -0.661856        -1.070348
 H         1.542373        -2.148859         2.121127
 H         2.289458        -1.978388         0.575100
 H         3.933720        -0.958371         3.412640
