19
Iteration:  3312
 C         3.169956         1.550621         0.238163
 C         2.267424         0.816702         1.097505
 C         1.821718         0.744042         2.549825
 O         0.432663         0.369837         2.227924
 C         1.049254        -0.131114         0.968335
 C         0.111480        -0.157864        -0.286480
 C         1.873307        -1.345468         1.296221
 C         2.720353        -0.340911         2.079310
 O         4.002000        -0.321307         2.546350
 H         4.176342         1.507997         0.639993
 H         3.253326         1.203196        -0.833902
 H         3.050025         2.667546         0.350992
 H         2.115876         1.377942         3.473988
 H        -1.003154        -0.379958        -0.013192
 H         0.144554         0.931389        -0.763615
 H         0.407796        -0.827042        -1.148141
 H         1.509968        -2.343598         1.705564
 H         2.424653        -1.598471         0.368995
 H         4.162749        -1.008741         3.230967
