19
Iteration:    95
 C         2.820843         2.035770         0.638996
 C         2.329696         0.800311         1.232863
 C         1.753385         0.604396         2.557062
 O         0.472515         0.226818         2.126812
 C         1.072793        -0.044220         0.892629
 C         0.108128         0.013592        -0.325461
 C         1.992979        -1.346494         1.154187
 C         2.850907        -0.455782         1.986994
 O         4.111901        -0.713232         2.481032
 H         3.568271         2.534033         1.332455
 H         3.293237         1.852688        -0.414906
 H         2.040245         2.786445         0.509901
 H         1.737663         1.175233         3.522315
 H        -0.172489        -1.010771        -0.627151
 H        -0.793533         0.694617        -0.189063
 H         0.567445         0.293915        -1.347108
 H         1.542920        -2.217870         1.776078
 H         2.476742        -1.822734         0.203531
 H         4.614571         0.116874         2.571017
