19
Iteration:  3025
 C         3.079159         1.798995         0.306335
 C         2.414376         0.752530         1.107551
 C         1.894367         0.848077         2.495438
 O         0.472768         0.478313         2.183837
 C         1.023784        -0.048368         0.901712
 C         0.033594        -0.274990        -0.282248
 C         1.766917        -1.337908         1.341511
 C         2.771868        -0.455133         2.063711
 O         4.089434        -0.561697         2.566256
 H         3.716235         2.348425         0.955674
 H         3.697257         1.326141        -0.653609
 H         2.317272         2.480430        -0.290572
 H         1.829526         1.329847         3.479536
 H        -0.636598        -1.124184        -0.265560
 H        -0.563832         0.583749        -0.412808
 H         0.757535        -0.299852        -1.153008
 H         1.302859        -2.133609         1.943628
 H         2.217063        -1.701507         0.441473
 H         3.931002        -0.939228         3.456432
