19
Iteration:  4087
 C         3.249688         1.623304         0.259964
 C         2.360261         0.780538         1.115928
 C         1.846835         0.822926         2.514010
 O         0.487968         0.483276         2.205945
 C         1.052763        -0.037575         0.993297
 C        -0.041863        -0.109038        -0.151786
 C         1.776865        -1.390684         1.442677
 C         2.735080        -0.326143         2.027548
 O         4.046520        -0.616914         2.305301
 H         4.255816         1.246792         0.286601
 H         3.034457         1.658868        -0.795199
 H         3.155058         2.704531         0.684361
 H         2.024248         1.325028         3.456511
 H        -0.917496        -0.880708         0.067953
 H        -0.533917         0.930947        -0.199337
 H         0.486903        -0.343850        -1.173484
 H         1.152044        -2.133761         1.959504
 H         2.217150        -1.917426         0.579080
 H         4.186829        -0.877291         3.237413
