19
Iteration:   189charge 0 multiplicity 1
 C         2.920286         1.969087         0.589716
 C         2.340528         0.847113         1.305644
 C         1.795943         0.559027         2.617718
 O         0.437251         0.168486         2.058243
 C         1.051057        -0.101547         0.842580
 C         0.060661         0.016370        -0.210926
 C         2.064047        -1.329808         0.964933
 C         2.828540        -0.416575         1.984071
 O         4.028385        -0.555267         2.613770
 H         3.781971         2.433546         1.030069
 H         3.204255         1.642733        -0.402504
 H         2.191623         2.889867         0.466225
 H         1.891882         1.063089         3.677115
 H        -0.777085        -0.567132         0.259847
 H        -0.179748         1.036237        -0.397008
 H         0.251452        -0.506156        -1.100083
 H         1.519550        -2.207218         1.332990
 H         2.586434        -1.544403         0.095523
 H         4.713305        -0.658158         1.875081
