19
Iteration:  3127charge 0 multiplicity 1
 C         3.096953         1.702408         0.154709
 C         2.337565         0.782855         1.142328
 C         1.797527         0.681650         2.527635
 O         0.472133         0.359257         2.221031
 C         1.070422        -0.090231         0.941105
 C         0.175750        -0.072516        -0.266501
 C         1.790524        -1.427499         1.362088
 C         2.721323        -0.413847         2.037880
 O         4.056076        -0.369780         2.560145
 H         4.157439         1.972099         0.457909
 H         3.175955         1.133678        -0.849486
 H         2.600319         2.626945         0.388787
 H         2.022453         1.359310         3.331949
 H        -0.746238        -0.509182         0.038000
 H         0.156955         0.989679        -0.612080
 H         0.455172        -0.589008        -1.143393
 H         1.102151        -2.128945         1.885565
 H         2.248729        -1.946547         0.494123
 H         3.863479        -0.759903         3.430685
