19
Iteration:  2728
 C         3.047425         1.803815         0.214308
 C         2.339576         0.762888         1.093077
 C         1.826754         0.740046         2.499103
 O         0.480787         0.354527         2.233387
 C         0.969643        -0.142857         0.904713
 C         0.070460        -0.034118        -0.306979
 C         1.882572        -1.359750         1.371727
 C         2.738673        -0.338864         2.035235
 O         4.113506        -0.623529         2.568459
 H         3.923527         1.972972         0.751250
 H         3.395946         1.373396        -0.808021
 H         2.566811         2.815151         0.300773
 H         1.866602         1.424024         3.301858
 H        -0.862130        -0.668379        -0.151911
 H        -0.145416         1.068208        -0.442063
 H         0.600256        -0.364555        -1.194219
 H         1.497702        -2.031780         2.136560
 H         2.481656        -1.942189         0.714336
 H         4.032379        -0.593337         3.534717
