19
Iteration:   815charge 0 multiplicity 1
 C         2.896256         2.154287         0.597417
 C         2.339741         0.796228         1.213591
 C         1.721593         0.642969         2.532268
 O         0.478867         0.378339         2.052179
 C         1.161330        -0.121993         0.780813
 C        -0.002944        -0.138998        -0.281148
 C         1.996993        -1.460150         1.080594
 C         2.770065        -0.424374         2.090482
 O         4.115463        -0.698947         2.642630
 H         3.722424         2.554730         1.239270
 H         3.227770         1.993835        -0.438675
 H         2.189879         3.016250         0.678242
 H         2.032133         1.125735         3.567745
 H        -0.637605        -0.941987         0.277462
 H        -0.537271         0.809728        -0.412595
 H         0.464798        -0.569799        -1.192605
 H         1.469617        -2.260386         1.618410
 H         2.610658        -1.655902         0.121900
 H         4.719825        -0.399825         1.966182
