19
Iteration:  4263charge 0 multiplicity 1
 C         3.087252         1.757168         0.259003
 C         2.388706         0.743783         1.048425
 C         1.872517         0.767806         2.504371
 O         0.518533         0.559829         2.186814
 C         0.973019        -0.078638         0.999077
 C         0.049773        -0.016761        -0.112246
 C         1.812484        -1.417526         1.488886
 C         2.799786        -0.340965         1.935889
 O         4.054314        -0.766721         2.399582
 H         3.876784         2.327753         0.808928
 H         3.508062         1.221775        -0.611030
 H         2.357837         2.527215        -0.292833
 H         2.100153         1.321296         3.400976
 H        -0.811243        -0.835646        -0.016329
 H        -0.582594         0.941026        -0.342376
 H         0.473735        -0.355152        -1.084462
 H         1.285271        -2.126136         2.111143
 H         2.193069        -1.759873         0.524312
 H         4.004572        -1.000507         3.344417
