19
Iteration:  4839
 C         2.986964         1.873647         0.162231
 C         2.484514         0.759846         1.047304
 C         1.829008         0.789067         2.424946
 O         0.496068         0.546574         2.135251
 C         0.983938        -0.102993         0.962857
 C         0.104391        -0.291825        -0.260514
 C         1.869224        -1.412656         1.478478
 C         2.814539        -0.370630         1.980828
 O         3.998819        -0.625319         2.670685
 H         4.036655         1.750183         0.063276
 H         2.486884         1.918031        -0.837406
 H         2.800516         2.775798         0.816180
 H         1.945872         1.369734         3.342693
 H        -0.448262        -1.125549        -0.111659
 H        -0.559857         0.615053        -0.380095
 H         0.641374        -0.377700        -1.115046
 H         1.457144        -2.214665         2.211448
 H         2.218152        -2.090776         0.656079
 H         4.003630        -0.361852         3.612275
