19
Iteration:  3817
 C         2.890997         1.747814         0.116119
 C         2.366820         0.695043         1.010332
 C         1.875442         0.882543         2.473670
 O         0.465847         0.484201         2.190807
 C         1.024253        -0.145732         0.916215
 C         0.072350         0.010137        -0.298817
 C         1.859927        -1.400337         1.531576
 C         2.870563        -0.430640         2.096902
 O         4.124060        -0.694861         2.616685
 H         2.203481         2.368496        -0.502320
 H         3.343339         2.478050         0.798958
 H         3.783380         1.458857        -0.494945
 H         1.916331         1.665808         3.244587
 H        -0.978992        -0.486580        -0.060391
 H        -0.060476         1.235866        -0.363303
 H         0.642031        -0.371459        -1.219956
 H         1.223602        -2.039534         2.153236
 H         2.361563        -2.034100         0.699532
 H         3.976837        -1.286079         3.383434
