19
Iteration:  2082
 C         3.094741         1.791615         0.359081
 C         2.392585         0.774280         1.138194
 C         1.747423         0.770898         2.474744
 O         0.454029         0.342577         2.096149
 C         1.069486        -0.235213         0.844331
 C        -0.042394        -0.170457        -0.180577
 C         1.991280        -1.300798         1.278437
 C         2.798238        -0.276577         1.963987
 O         4.044399        -0.596087         2.652771
 H         3.852588         2.412689         0.863685
 H         3.493705         1.249557        -0.466050
 H         2.377166         2.645445        -0.000105
 H         1.726025         1.520410         3.355992
 H        -0.995185        -0.453383         0.282514
 H        -0.017891         0.915681        -0.418407
 H         0.124828        -0.682516        -1.135521
 H         1.374897        -2.054581         1.774685
 H         2.602693        -1.787360         0.508849
 H         4.239935        -0.035912         3.419230
