19
Iteration:  2965
 C         2.850097         1.767598         0.112952
 C         2.352405         0.755743         1.082410
 C         1.869520         0.732620         2.516181
 O         0.483157         0.348857         2.231061
 C         1.076896        -0.083925         0.855840
 C         0.197997         0.022938        -0.306087
 C         1.802273        -1.390284         1.422943
 C         2.801450        -0.402087         2.050376
 O         4.090017        -0.603335         2.690130
 H         3.815864         2.340777         0.316160
 H         3.121448         1.172766        -0.703364
 H         2.172483         2.534102        -0.058119
 H         2.012727         1.514808         3.269946
 H        -0.790847        -0.432306        -0.146670
 H         0.233959         1.136229        -0.524351
 H         0.684568        -0.395746        -1.172811
 H         1.267773        -2.076749         1.961853
 H         2.300309        -1.841854         0.552683
 H         3.974199        -0.788762         3.665947
