19
Iteration:   300charge 0 multiplicity 1
 C         2.899592         1.893566         0.437470
 C         2.257805         0.791450         1.328629
 C         1.755249         0.513789         2.666803
 O         0.425020         0.236333         2.268243
 C         1.046921        -0.063979         0.856120
 C         0.212773         0.088923        -0.374951
 C         1.982808        -1.384555         1.128457
 C         2.821820        -0.482945         1.874705
 O         4.083165        -0.486995         2.597492
 H         3.724809         2.334892         1.038125
 H         3.216903         1.456502        -0.466976
 H         2.020855         2.694744         0.225159
 H         1.948328         1.007525         3.553763
 H        -0.551086        -0.663202        -0.404662
 H        -0.325598         1.085276        -0.355885
 H         0.956874         0.060120        -1.203753
 H         1.533532        -2.326874         1.459673
 H         2.295059        -1.594461         0.150775
 H         4.690637        -0.399480         1.869238
