19
Iteration:   842charge 0 multiplicity 1
 C         2.987567         2.077923         0.608291
 C         2.319784         0.852408         1.112222
 C         1.761410         0.594408         2.521013
 O         0.538742         0.135827         2.148401
 C         1.057330        -0.098705         0.858170
 C         0.040337        -0.139115        -0.246578
 C         1.989229        -1.288287         1.099490
 C         2.835105        -0.283384         1.925039
 O         3.965890        -0.624442         2.663753
 H         3.814121         2.383267         1.249191
 H         3.340213         1.878015        -0.421264
 H         2.294698         2.996341         0.572300
 H         1.893930         1.227012         3.351215
 H        -0.850295        -0.676355        -0.023208
 H        -0.147702         0.868006        -0.644720
 H         0.671691        -0.579405        -1.020432
 H         1.473070        -2.036738         1.704631
 H         2.479833        -1.584721         0.207368
 H         4.432760        -1.321141         2.212603
