19
Iteration:  3988
 C         2.984722         1.746553         0.080357
 C         2.331385         0.756829         1.128999
 C         1.943579         0.833293         2.540704
 O         0.497243         0.459539         2.224017
 C         1.078613        -0.111448         0.916016
 C         0.040875        -0.044474        -0.226107
 C         1.828470        -1.271219         1.404344
 C         2.828585        -0.371207         2.123187
 O         4.012750        -0.777823         2.517242
 H         3.094835         1.180389        -0.811240
 H         2.353599         2.578880        -0.182072
 H         4.094419         2.083615         0.244381
 H         2.111859         1.530335         3.388898
 H        -0.829292        -0.683157         0.155547
 H        -0.109270         0.991849        -0.510903
 H         0.538550        -0.476968        -1.186679
 H         1.302607        -2.033337         2.120791
 H         2.200557        -1.847851         0.538281
 H         4.017590        -0.764990         3.485323
