19
Iteration:  1099
 C         2.926496         1.928881         0.387839
 C         2.281863         0.879531         1.261995
 C         1.728593         0.655999         2.618832
 O         0.433782         0.147375         2.209239
 C         1.088162        -0.142456         0.854755
 C         0.180467         0.022797        -0.291847
 C         2.000253        -1.383974         1.155097
 C         2.860173        -0.319902         1.989961
 O         3.989015        -0.540540         2.581304
 H         3.831374         2.302337         0.977109
 H         3.402750         1.308261        -0.488126
 H         2.384921         2.775005        -0.045285
 H         1.757649         1.242729         3.520968
 H        -0.475226        -0.846163        -0.379678
 H        -0.375315         0.936197        -0.321386
 H         0.759087        -0.022705        -1.157587
 H         1.429888        -2.058080         1.733793
 H         2.674639        -1.797117         0.332532
 H         4.414939        -1.315082         2.178870
