19
Iteration:  3162charge 0 multiplicity 1
 C         2.876791         1.721114         0.147991
 C         2.307710         0.840549         1.127230
 C         1.811221         0.797198         2.497145
 O         0.459694         0.449820         2.204099
 C         1.091646        -0.159242         0.903369
 C         0.241936        -0.082188        -0.308489
 C         1.932624        -1.349459         1.438778
 C         2.788205        -0.288925         2.085406
 O         4.061771        -0.741283         2.600210
 H         3.868523         2.301676         0.504924
 H         2.960999         1.373840        -0.889345
 H         2.139437         2.415186        -0.082113
 H         1.978510         1.674759         3.282665
 H        -0.674051        -0.660438        -0.186346
 H        -0.229634         0.906784        -0.416090
 H         0.785305        -0.370090        -1.150551
 H         1.449020        -2.157787         2.099375
 H         2.362930        -1.746527         0.449464
 H         3.786628        -0.897996         3.535991
