19
Iteration:  3402
 C         2.883892         1.905235         0.084233
 C         2.378503         0.837070         1.063378
 C         1.923642         0.765587         2.482493
 O         0.545358         0.522447         2.198498
 C         1.028865        -0.085193         0.905845
 C         0.168988        -0.265495        -0.235895
 C         1.812129        -1.347340         1.384012
 C         2.781786        -0.419722         2.052788
 O         4.017380        -0.739382         2.718144
 H         3.441895         2.576524         0.824580
 H         3.621446         1.438013        -0.563292
 H         2.125367         2.445304        -0.340962
 H         2.262713         1.351355         3.284745
 H        -0.266783        -1.258986        -0.203443
 H        -0.643637         0.535843        -0.637655
 H         0.913317        -0.249013        -1.040744
 H         1.103017        -1.985248         1.857391
 H         2.247490        -1.835402         0.465956
 H         3.829581        -0.302602         3.560227
