19
Iteration:  2583charge 0 multiplicity 1
 C         2.804343         1.759213         0.129923
 C         2.335130         0.782656         1.187235
 C         1.875792         0.694370         2.542901
 O         0.512075         0.418352         2.253922
 C         1.117263        -0.047341         0.891141
 C         0.212251         0.002192        -0.285874
 C         1.913045        -1.424248         1.325895
 C         2.769246        -0.413432         2.014939
 O         3.988646        -0.636419         2.611172
 H         3.712112         2.206655         0.685890
 H         3.246329         1.093335        -0.722622
 H         2.105051         2.542416        -0.153440
 H         2.231485         1.408980         3.301432
 H        -0.758825        -0.435130        -0.172978
 H         0.059430         1.004664        -0.631884
 H         0.800079        -0.545350        -1.053969
 H         1.274330        -2.026761         1.883767
 H         2.518605        -1.806759         0.538259
 H         3.843170        -0.270569         3.524745
