19
Iteration:  2606
 C         3.029027         1.778251         0.165796
 C         2.391803         0.718925         1.167605
 C         1.740152         0.766794         2.548061
 O         0.488611         0.349211         2.158008
 C         0.994405        -0.119409         0.928378
 C         0.095679        -0.012744        -0.253470
 C         1.814322        -1.405174         1.312060
 C         2.778937        -0.338376         2.037220
 O         4.153416        -0.614791         2.604678
 H         3.834761         2.316876         0.726909
 H         3.540649         1.239611        -0.775625
 H         2.286480         2.581748        -0.132176
 H         1.899105         1.387408         3.491730
 H        -0.891266        -0.474506         0.003228
 H        -0.160202         1.042180        -0.374180
 H         0.552005        -0.466350        -1.148950
 H         1.347591        -2.186540         1.812254
 H         2.454524        -1.671771         0.545533
 H         4.102710        -0.258369         3.490496
