19
Iteration:  2611
 C         3.064289         1.776201         0.166573
 C         2.392948         0.760542         1.152771
 C         1.721098         0.791015         2.548184
 O         0.485691         0.337538         2.157650
 C         1.027018        -0.131306         0.903887
 C         0.045764        -0.014573        -0.223552
 C         1.834443        -1.393977         1.346064
 C         2.776106        -0.348862         2.036865
 O         4.157560        -0.612834         2.581662
 H         3.800882         2.232572         0.825267
 H         3.579373         1.225942        -0.556220
 H         2.398442         2.654674        -0.062706
 H         1.813073         1.443250         3.378857
 H        -0.953128        -0.532925        -0.086711
 H        -0.233307         1.057959        -0.429430
 H         0.514248        -0.436677        -1.123908
 H         1.289570        -2.362815         1.726171
 H         2.503971        -1.920366         0.526103
 H         4.027184        -0.302113         3.513211
