19
Iteration:  1539charge 0 multiplicity 1
 C         3.017712         1.890418         0.223311
 C         2.250722         0.814630         1.029566
 C         1.743525         0.809692         2.445669
 O         0.452427         0.256226         2.211923
 C         1.013465        -0.132732         0.999356
 C         0.205815        -0.113568        -0.298248
 C         1.860315        -1.373304         1.401785
 C         2.840626        -0.304076         2.063556
 O         4.063892        -0.579577         2.620725
 H         3.837313         2.150122         0.831744
 H         3.565551         1.470313        -0.721617
 H         2.553088         2.835829         0.046234
 H         2.083404         1.210100         3.507523
 H        -0.455550        -0.964969        -0.364017
 H        -0.505988         0.762409        -0.261946
 H         0.886877         0.123286        -1.138873
 H         1.421688        -2.110551         2.107653
 H         2.237335        -1.942085         0.584459
 H         4.291187        -1.523614         2.421959
