19
Iteration:  3883charge 0 multiplicity 1
 C         3.231946         1.543599         0.185387
 C         2.328069         0.802487         1.144101
 C         1.872597         0.796233         2.550744
 O         0.436487         0.405818         2.229917
 C         0.965111        -0.053753         0.959301
 C        -0.078202        -0.116676        -0.227836
 C         1.882667        -1.289978         1.291463
 C         2.789046        -0.290405         2.051245
 O         4.078653        -0.582617         2.494488
 H         2.895877         1.828402        -0.845500
 H         3.530398         2.521609         0.616071
 H         4.185618         0.996588         0.315947
 H         1.878789         1.689609         3.226002
 H        -1.083103        -0.620019         0.023622
 H        -0.510782         0.989595        -0.263546
 H         0.264257        -0.616552        -1.174327
 H         1.565100        -2.171530         1.853647
 H         2.420646        -1.863926         0.450640
 H         4.083136        -0.691313         3.463349
