19
Iteration:  2472charge 0 multiplicity 1
 C         3.338494         1.677848         0.470499
 C         2.279561         0.850825         1.114165
 C         1.762383         0.743650         2.513598
 O         0.511859         0.341706         2.202533
 C         0.974494        -0.142991         0.895180
 C        -0.030015        -0.227242        -0.236946
 C         1.912936        -1.329504         1.320664
 C         2.723713        -0.246478         1.995805
 O         4.015555        -0.486109         2.417429
 H         4.278951         2.217248         1.036770
 H         3.733983         1.113292        -0.542738
 H         2.869682         2.605388         0.120386
 H         1.945527         1.539785         3.216964
 H        -0.792396        -0.985079         0.001052
 H        -0.624983         0.687155        -0.459920
 H         0.557356        -0.538606        -1.141327
 H         1.261797        -1.950319         1.917800
 H         2.287544        -1.939421         0.395615
 H         3.871137        -0.421928         3.366392
