19
Iteration:  4028
 C         2.938676         1.693110         0.072902
 C         2.439388         0.780437         1.042412
 C         1.928221         0.720210         2.492376
 O         0.541302         0.473428         2.267313
 C         1.082889        -0.117575         0.962890
 C         0.104605         0.045873        -0.121948
 C         1.789033        -1.421262         1.356406
 C         2.795318        -0.399090         2.000792
 O         3.979309        -0.640542         2.615236
 H         3.710616         1.154775        -0.559383
 H         2.043040         1.888407        -0.575362
 H         3.301815         2.600489         0.403825
 H         2.183730         1.534531         3.201800
 H        -0.915688        -0.127439         0.174768
 H         0.144356         1.113006        -0.353169
 H         0.319930        -0.490938        -1.082687
 H         1.191725        -2.164954         1.731021
 H         2.276502        -1.641825         0.431048
 H         3.851589        -0.887219         3.554182
