19
Iteration:  1569
 C         2.969396         1.759385         0.300093
 C         2.385427         0.735758         1.189163
 C         1.792512         0.776773         2.558455
 O         0.520405         0.419868         2.175528
 C         1.097067        -0.102941         0.929855
 C         0.109820        -0.200180        -0.349561
 C         1.855330        -1.331122         1.289101
 C         2.776813        -0.345606         2.072241
 O         3.981473        -0.551025         2.633149
 H         3.937668         2.139272         0.640052
 H         3.100353         1.347493        -0.739386
 H         2.289492         2.541460         0.159124
 H         2.162902         1.127320         3.582751
 H        -0.511826        -1.099094        -0.379418
 H        -0.549531         0.690952        -0.223399
 H         0.527566        -0.110662        -1.414796
 H         1.412276        -2.178569         1.807974
 H         2.469864        -1.732648         0.410542
 H         4.659676        -0.202635         2.068385
