19
Iteration:  1231charge 0 multiplicity 1
 C         2.994373         1.940017         0.518929
 C         2.322418         0.811458         1.269231
 C         1.704741         0.679913         2.579883
 O         0.415640         0.335883         2.086478
 C         1.040261        -0.094241         0.909845
 C         0.157439        -0.158412        -0.316477
 C         1.909947        -1.403643         1.223660
 C         2.822408        -0.423047         1.996015
 O         4.138482        -0.539404         2.440510
 H         3.921220         2.407935         0.877907
 H         3.278556         1.473055        -0.462129
 H         2.387781         2.754811         0.223674
 H         1.856441         1.015440         3.681139
 H        -0.809872        -0.427028         0.098684
 H        -0.048416         0.824481        -0.665477
 H         0.499416        -0.803291        -1.071780
 H         1.490740        -2.255601         1.682089
 H         2.445058        -1.833680         0.327337
 H         4.062651        -0.199264         3.406967
