19
Iteration:  1870
 C         3.075325         1.882642         0.347830
 C         2.329590         0.793827         1.092941
 C         1.843115         0.692447         2.517107
 O         0.427182         0.322583         2.196522
 C         1.000314        -0.076190         0.917551
 C         0.114794        -0.158184        -0.259839
 C         1.908491        -1.397750         1.291483
 C         2.768350        -0.394480         2.018617
 O         4.057819        -0.551599         2.574980
 H         3.813920         2.589905         0.771658
 H         3.449768         1.398510        -0.549531
 H         2.227907         2.548323         0.048221
 H         1.920600         1.428250         3.416705
 H        -0.926614        -0.370024         0.071454
 H         0.150544         0.664096        -0.943077
 H         0.545476        -0.956702        -0.898443
 H         1.287730        -2.142782         1.786352
 H         2.370155        -1.869107         0.410288
 H         4.287996         0.187052         3.146848
