19
Iteration:   675
 C         3.087342         1.960135         0.443572
 C         2.179272         0.909982         1.127561
 C         1.805153         0.688313         2.431751
 O         0.566967         0.091654         2.235341
 C         1.024960        -0.181704         0.859557
 C         0.081241        -0.019018        -0.231475
 C         2.023235        -1.316811         1.179345
 C         2.736154        -0.340734         1.929183
 O         3.911371        -0.592847         2.707216
 H         3.868093         2.114283         1.216726
 H         3.412636         1.510366        -0.420889
 H         2.700495         3.077326         0.232183
 H         2.125316         1.055820         3.470870
 H        -0.901954        -0.621665        -0.179669
 H        -0.216317         1.025522        -0.378185
 H         0.574140        -0.265875        -1.217411
 H         1.614422        -2.190742         1.669444
 H         2.575157        -1.543750         0.209103
 H         4.704119        -0.627572         2.161811
