19
Iteration:   674
 C         3.086460         1.964864         0.443277
 C         2.183707         0.909021         1.129712
 C         1.801450         0.693707         2.442273
 O         0.566635         0.090904         2.228148
 C         1.027167        -0.179516         0.860660
 C         0.070040        -0.023186        -0.228219
 C         2.024975        -1.310215         1.181517
 C         2.730894        -0.340263         1.926584
 O         3.913826        -0.601305         2.703205
 H         3.874661         2.095971         1.230120
 H         3.455894         1.516979        -0.442106
 H         2.699736         3.090200         0.240613
 H         2.161584         1.045175         3.433715
 H        -0.897844        -0.624977        -0.201537
 H        -0.237322         1.018024        -0.401396
 H         0.630887        -0.310113        -1.204445
 H         1.614050        -2.189804         1.695964
 H         2.560618        -1.542594         0.207858
 H         4.711019        -0.588797         2.188700
