19
Iteration:  1237charge 0 multiplicity 1
 C         2.992285         1.892362         0.542354
 C         2.329190         0.821359         1.268357
 C         1.749673         0.647898         2.593921
 O         0.394983         0.336108         2.051237
 C         1.082406        -0.128268         0.882215
 C         0.110761        -0.133493        -0.285688
 C         1.928790        -1.353917         1.221564
 C         2.796141        -0.402466         2.005177
 O         4.135866        -0.510874         2.443479
 H         3.965823         2.358011         0.803762
 H         3.250961         1.373675        -0.386115
 H         2.180660         2.678126         0.242777
 H         1.822239         1.150652         3.524134
 H        -0.887859        -0.536461         0.046054
 H         0.037271         0.926656        -0.697334
 H         0.437115        -0.788401        -1.155953
 H         1.525956        -2.220468         1.871815
 H         2.541070        -1.700767         0.402718
 H         4.131012        -0.638500         3.400984
