19
Iteration:  4292charge 0 multiplicity 1
 C         3.271966         1.702529         0.358727
 C         2.390063         0.710966         1.036238
 C         1.922700         0.781238         2.453445
 O         0.550788         0.467066         2.253616
 C         1.022766        -0.048656         0.916116
 C        -0.132374        -0.115321        -0.156787
 C         1.631099        -1.371109         1.403716
 C         2.735060        -0.387941         2.008718
 O         4.112728        -0.527138         2.420380
 H         4.272951         1.816285         0.704188
 H         3.208753         1.314056        -0.625169
 H         2.857568         2.725162         0.392497
 H         2.253587         1.599770         3.091704
 H        -0.623144        -0.996109         0.027112
 H        -0.768077         0.690045        -0.247980
 H         0.283455        -0.223287        -1.162060
 H         0.851532        -2.061197         1.926969
 H         2.095088        -1.934636         0.562486
 H         4.229859        -1.292929         3.012604
