19
Iteration:   508
 C         2.977507         1.899595         0.242211
 C         2.237484         0.899187         1.200199
 C         1.754077         0.618874         2.609476
 O         0.512902         0.111336         2.244779
 C         1.132546        -0.047841         0.823659
 C         0.119788         0.063662        -0.211626
 C         2.033962        -1.355150         1.098371
 C         2.817700        -0.306676         1.998823
 O         3.896226        -0.674097         2.729777
 H         3.922313         2.190344         0.772994
 H         3.247200         1.435075        -0.657544
 H         2.553640         2.894125        -0.127812
 H         1.890994         1.111799         3.610339
 H        -0.710146        -0.506570         0.136573
 H        -0.328879         1.090008        -0.297813
 H         0.545624        -0.190260        -1.236807
 H         1.615137        -2.348153         1.464292
 H         2.511636        -1.562055         0.147172
 H         4.690073        -0.455165         2.187045
