19
Iteration:  4026
 C         2.933557         1.694865         0.069258
 C         2.438949         0.776786         1.046961
 C         1.933689         0.744936         2.497974
 O         0.519534         0.472928         2.267136
 C         1.075100        -0.109453         0.944977
 C         0.106428         0.045083        -0.123335
 C         1.803987        -1.410527         1.363154
 C         2.826879        -0.412408         2.003017
 O         3.984474        -0.655449         2.621338
 H         3.662832         1.114170        -0.609602
 H         2.046164         1.934199        -0.609871
 H         3.301282         2.610404         0.399222
 H         2.118893         1.502012         3.265332
 H        -0.885163        -0.109507         0.103517
 H         0.091848         1.114022        -0.358202
 H         0.312598        -0.507321        -0.964677
 H         1.158384        -2.226279         1.763300
 H         2.211257        -1.666402         0.315890
 H         3.870952        -0.870533         3.572638
