19
Iteration:  1689charge 0 multiplicity 1
 C         3.003664         1.774354         0.312177
 C         2.374368         0.696039         1.135118
 C         1.772022         0.796872         2.527853
 O         0.440006         0.417436         2.207694
 C         1.054685        -0.168033         0.888463
 C         0.171893        -0.159109        -0.290252
 C         1.856494        -1.342438         1.359517
 C         2.713771        -0.368183         2.049748
 O         4.116301        -0.445090         2.508596
 H         3.757111         2.302996         0.926457
 H         3.526623         1.460965        -0.657996
 H         2.209949         2.496059        -0.005651
 H         2.180603         1.230758         3.532683
 H        -0.645138        -0.775955         0.016796
 H        -0.092883         0.891606        -0.549330
 H         0.584947        -0.758138        -1.119493
 H         1.108018        -2.021159         1.781595
 H         2.316194        -1.896554         0.493213
 H         4.159357        -1.305093         3.040158
