19
Iteration:  1835
 C         3.010783         1.816961         0.433564
 C         2.316745         0.772948         1.147526
 C         1.812829         0.709649         2.516383
 O         0.430641         0.394175         2.116796
 C         1.086830        -0.153823         0.940693
 C         0.093700        -0.158020        -0.301562
 C         1.919617        -1.366304         1.338229
 C         2.794830        -0.336764         2.056111
 O         4.082134        -0.537219         2.472231
 H         3.854100         2.403252         0.802949
 H         3.269114         1.361766        -0.626327
 H         2.199831         2.383053         0.036925
 H         1.977247         1.493985         3.318999
 H        -0.924547        -0.594755        -0.201081
 H        -0.059811         0.853364        -0.514884
 H         0.493198        -0.725508        -1.120779
 H         1.356676        -2.028295         1.983576
 H         2.547353        -1.753512         0.595620
 H         4.028800        -0.593358         3.436128
