19
Iteration:   962
 C         2.949150         2.056239         0.482495
 C         2.304937         0.850786         1.190470
 C         1.721695         0.673583         2.593001
 O         0.463273         0.180512         2.258816
 C         1.083463        -0.129040         0.819465
 C         0.135477        -0.094650        -0.344157
 C         1.972809        -1.367480         1.116019
 C         2.827527        -0.392143         1.941403
 O         4.082708        -0.597056         2.576047
 H         3.702912         2.506577         1.125423
 H         3.405157         1.854114        -0.496037
 H         2.099805         2.805842         0.214877
 H         1.965054         1.060967         3.628485
 H        -0.550850        -0.959271        -0.413980
 H        -0.325963         0.906212        -0.240749
 H         0.799069         0.095214        -1.245334
 H         1.317557        -2.175415         1.577883
 H         2.458638        -1.615987         0.177259
 H         3.823396        -1.062458         3.440175
