19
Iteration:  2572charge 0 multiplicity 1
 C         2.809516         1.779697         0.160012
 C         2.331907         0.805576         1.095125
 C         1.877934         0.780452         2.589389
 O         0.562464         0.394838         2.263250
 C         1.058982        -0.103443         0.943094
 C         0.266155         0.005291        -0.334556
 C         1.868759        -1.427319         1.331502
 C         2.782349        -0.360424         1.983791
 O         3.967702        -0.682198         2.641076
 H         3.770041         2.422072         0.356720
 H         3.056763         1.319033        -0.907266
 H         2.058588         2.509039        -0.163853
 H         2.068419         1.360748         3.517142
 H        -0.631740        -0.535940        -0.093020
 H         0.069100         1.013952        -0.646255
 H         0.743035        -0.562475        -1.173143
 H         1.534362        -2.192962         1.971577
 H         2.398063        -1.971962         0.566784
 H         3.872729        -0.596561         3.598219
