19
Iteration:  3935charge 0 multiplicity 1
 C         3.273060         1.649192         0.325343
 C         2.365159         0.773296         1.023893
 C         1.869188         0.724702         2.481776
 O         0.462269         0.517328         2.201567
 C         0.948442        -0.034142         0.890050
 C        -0.100605        -0.170790        -0.225203
 C         1.715293        -1.392025         1.476142
 C         2.825610        -0.419836         2.052597
 O         4.128496        -0.460728         2.416642
 H         2.992379         1.727737        -0.732469
 H         3.208309         2.646247         0.803258
 H         4.427746         1.326632         0.340163
 H         2.043190         1.274222         3.410507
 H        -0.745135        -1.048758        -0.055204
 H        -0.707645         0.724151        -0.248456
 H         0.450947        -0.211276        -1.123702
 H         1.109501        -1.994268         2.314554
 H         2.255049        -1.918058         0.622396
 H         4.128220        -1.057604         3.184109
