19
Iteration:   207charge 0 multiplicity 1
 C         2.975379         2.070334         0.660234
 C         2.369435         0.817089         1.180391
 C         1.804860         0.512522         2.544218
 O         0.497216         0.238163         2.189607
 C         1.206765        -0.039114         0.708866
 C        -0.020900        -0.116281        -0.198043
 C         1.945360        -1.369572         1.021856
 C         2.764925        -0.441369         1.957919
 O         3.979844        -0.500743         2.608062
 H         3.727851         2.398943         1.410605
 H         3.430542         2.025383        -0.421130
 H         2.233982         2.807619         0.660080
 H         1.810927         0.926767         3.574574
 H        -0.766534        -0.829237         0.236339
 H        -0.491991         0.879627        -0.269441
 H         0.322184        -0.424849        -1.210472
 H         1.581000        -2.373623         1.197917
 H         2.594590        -1.467741         0.060006
 H         4.741332        -1.020513         2.205413
