19
Iteration:  3300charge 0 multiplicity 1
 C         3.293959         1.586036         0.244492
 C         2.298139         0.747148         1.156592
 C         1.738752         0.728152         2.571165
 O         0.423377         0.392169         2.273627
 C         0.957629        -0.107579         0.913441
 C         0.144940        -0.158892        -0.222969
 C         1.921180        -1.363603         1.240994
 C         2.673008        -0.323236         2.029731
 O         4.018314        -0.295961         2.505213
 H         4.217805         1.356423         0.647246
 H         3.248375         1.132727        -0.793651
 H         2.972752         2.687363        -0.019334
 H         1.839610         1.399196         3.504869
 H        -0.959073        -0.437478         0.110225
 H         0.072846         0.874487        -0.761031
 H         0.556872        -1.060500        -0.838119
 H         1.322219        -2.299197         1.641210
 H         2.562607        -1.575322         0.350307
 H         4.128369        -0.970813         3.209857
