19
Iteration:  3638charge 0 multiplicity 1
 C         3.020427         1.695936         0.135594
 C         2.288567         0.833330         1.134858
 C         1.802359         0.860922         2.535943
 O         0.465151         0.440692         2.191958
 C         1.033215        -0.108971         0.930714
 C         0.147193        -0.159200        -0.341539
 C         1.869239        -1.329468         1.425817
 C         2.796837        -0.343661         2.076856
 O         4.119279        -0.683194         2.574457
 H         3.486841         2.549022         0.481987
 H         3.669618         1.142471        -0.527107
 H         2.235833         2.297071        -0.403517
 H         1.891385         1.563552         3.425932
 H        -0.744086        -0.758818         0.231550
 H        -0.210037         0.825154        -0.684860
 H         0.582036        -0.588847        -1.314787
 H         1.196231        -1.766797         2.185839
 H         2.336644        -1.937294         0.732812
 H         4.083574        -0.903890         3.540454
