19
Iteration:   661charge 0 multiplicity 1
 C         3.103487         1.974657         0.468582
 C         2.305865         0.901551         1.089410
 C         1.794371         0.677206         2.597805
 O         0.461995         0.139926         2.198884
 C         1.021517        -0.094493         0.886013
 C         0.006345        -0.116695        -0.267775
 C         1.980241        -1.322894         1.137143
 C         2.835032        -0.274140         1.945051
 O         3.935525        -0.679567         2.644749
 H         3.968220         2.186976         1.173723
 H         3.641271         1.796355        -0.519498
 H         2.527803         2.934359         0.357632
 H         1.955847         1.251496         3.470596
 H        -0.777153        -0.845261        -0.128641
 H        -0.319195         0.895904        -0.571164
 H         0.665885        -0.545433        -1.131698
 H         1.555790        -2.169321         1.754769
 H         2.505290        -1.735540         0.265709
 H         4.710359        -0.162126         2.271795
