19
Iteration:  1829charge 0 multiplicity 1
 C         2.995017         1.836175         0.342141
 C         2.355058         0.777021         1.145615
 C         1.789802         0.761942         2.535130
 O         0.432777         0.302197         2.117901
 C         1.062693        -0.103047         0.907117
 C         0.086217        -0.131740        -0.285300
 C         1.930281        -1.354005         1.398705
 C         2.787705        -0.342790         2.066854
 O         4.078802        -0.551381         2.473336
 H         3.855282         2.239276         0.948268
 H         3.423367         1.473328        -0.562134
 H         2.308901         2.704174        -0.000449
 H         2.045860         1.534410         3.282974
 H        -0.860744        -0.697356        -0.161995
 H        -0.176881         0.950680        -0.543586
 H         0.598615        -0.663153        -1.145366
 H         1.375932        -2.101969         2.019860
 H         2.622400        -1.971424         0.707454
 H         3.908555        -0.876740         3.377481
