19
Iteration:  4486charge 0 multiplicity 1
 C         3.246712         1.636674         0.259717
 C         2.316862         0.798031         1.114566
 C         1.920825         0.772738         2.524102
 O         0.462279         0.466170         2.243654
 C         0.958319        -0.026701         0.919163
 C        -0.038292        -0.203517        -0.220492
 C         1.744806        -1.311597         1.331877
 C         2.831077        -0.347975         2.012593
 O         4.081265        -0.575287         2.492100
 H         3.033440         1.419528        -0.855212
 H         2.925140         2.777402         0.357607
 H         4.256273         1.690515         0.512677
 H         2.225308         1.433045         3.345176
 H        -0.779241        -1.080595        -0.048787
 H        -0.782149         0.633192        -0.403357
 H         0.432146        -0.440245        -1.275109
 H         1.386098        -2.082076         2.022821
 H         2.284582        -1.798699         0.529264
 H         3.927652        -0.683910         3.454136
