19
Iteration:  3677charge 0 multiplicity 1
 C         3.188948         1.534805         0.180252
 C         2.320270         0.768481         1.098038
 C         1.846208         0.759009         2.539183
 O         0.449800         0.412590         2.245079
 C         0.977067        -0.153183         0.912144
 C         0.071595        -0.049204        -0.217077
 C         1.859819        -1.397629         1.314797
 C         2.756810        -0.388503         2.081450
 O         4.021369        -0.333001         2.522001
 H         3.380652         2.503571         0.846759
 H         4.235311         1.134475        -0.022992
 H         2.661760         1.682886        -0.736112
 H         2.022472         1.358564         3.390934
 H        -0.863610        -0.343488        -0.031055
 H        -0.033523         0.958889        -0.592889
 H         0.366411        -0.756307        -1.013892
 H         1.445397        -2.181958         1.995421
 H         2.312387        -1.839984         0.302233
 H         4.049337        -0.737821         3.393687
