19
Iteration:   595
 C         2.950595         2.066258         0.524938
 C         2.296144         0.851651         1.084360
 C         1.856525         0.717993         2.511738
 O         0.399828         0.265477         2.238926
 C         1.017189        -0.145471         0.884490
 C         0.190334        -0.103229        -0.366322
 C         1.866471        -1.412150         1.276140
 C         2.774807        -0.409391         2.025552
 O         4.098931        -0.671480         2.542020
 H         3.714476         2.321899         1.295276
 H         3.582533         1.900693        -0.363241
 H         2.225283         2.871694         0.381210
 H         1.980477         1.279034         3.394224
 H        -0.567075        -0.810686        -0.607154
 H        -0.208921         0.933487        -0.423791
 H         1.033017        -0.279371        -1.123892
 H         1.155176        -1.930598         1.994224
 H         2.295823        -2.074913         0.530085
 H         4.745872        -0.585790         1.852426
