19
Iteration:  2231
 C         3.171580         1.681919         0.289237
 C         2.354840         0.811707         1.095149
 C         1.787249         0.774243         2.536189
 O         0.465346         0.217249         2.247523
 C         1.046107        -0.089026         0.933937
 C         0.043065        -0.117944        -0.250008
 C         1.905345        -1.329908         1.259043
 C         2.762739        -0.371962         1.997768
 O         3.976284        -0.360249         2.579325
 H         4.116335         2.054054         0.847738
 H         3.704922         0.934890        -0.378002
 H         2.652143         2.414364        -0.287903
 H         1.765138         1.586105         3.191876
 H        -0.963156        -0.657110        -0.007966
 H        -0.237913         0.935680        -0.672822
 H         0.592857        -0.627233        -1.099848
 H         1.322105        -2.037513         1.939046
 H         2.481521        -1.693366         0.277743
 H         4.013210        -0.996956         3.339181
