19
Iteration:  2384
 C         2.887489         1.802753         0.160204
 C         2.349468         0.755307         1.081269
 C         1.835999         0.800966         2.510835
 O         0.479306         0.306707         2.184592
 C         1.075860        -0.084096         0.998157
 C         0.235263         0.000967        -0.305060
 C         1.849063        -1.414107         1.377576
 C         2.814976        -0.351091         1.987779
 O         4.035332        -0.566457         2.701515
 H         3.804779         2.406195         0.588632
 H         3.065530         1.194727        -0.802093
 H         2.164153         2.477378        -0.207806
 H         2.137962         1.500988         3.294077
 H        -0.565310        -0.750710        -0.053189
 H        -0.224842         1.033938        -0.479475
 H         0.656354        -0.420419        -1.249416
 H         1.244385        -2.049152         1.947655
 H         2.246711        -2.084840         0.535988
 H         4.030326        -1.349242         3.236469
