19
Iteration:    96
 C         2.812280         2.033969         0.636115
 C         2.324417         0.804948         1.242918
 C         1.753027         0.596003         2.564180
 O         0.469840         0.236698         2.122380
 C         1.062313        -0.047050         0.887570
 C         0.109684         0.019208        -0.330050
 C         1.993051        -1.353097         1.154938
 C         2.854247        -0.467294         1.991341
 O         4.127166        -0.709525         2.483202
 H         3.576995         2.533924         1.323765
 H         3.291312         1.826315        -0.430493
 H         2.056083         2.760886         0.504056
 H         1.735464         1.172378         3.486743
 H        -0.168997        -0.985527        -0.610962
 H        -0.773414         0.708839        -0.200900
 H         0.572085         0.292144        -1.345149
 H         1.579528        -2.192502         1.774114
 H         2.449282        -1.802037         0.191808
 H         4.591782         0.121192         2.563920
