19
Iteration:  3410charge 0 multiplicity 1
 C         2.946413         1.926222         0.087390
 C         2.326229         0.814349         1.098843
 C         1.912443         0.824425         2.549919
 O         0.555088         0.496105         2.155267
 C         1.122034        -0.076295         0.934498
 C         0.157631        -0.267703        -0.243034
 C         1.798263        -1.337872         1.382689
 C         2.781271        -0.442446         2.029579
 O         3.955603        -0.730904         2.672869
 H         3.346384         2.680819         0.654571
 H         3.655160         1.510385        -0.668636
 H         2.068788         2.418729        -0.437970
 H         2.192967         1.473438         3.378098
 H        -0.362438        -1.243087        -0.243142
 H        -0.559721         0.515136        -0.383084
 H         0.756898        -0.354395        -1.121742
 H         1.359904        -2.216766         2.000577
 H         2.201594        -1.941025         0.605063
 H         4.008856        -0.446072         3.600247
