19
Iteration:    89charge 0 multiplicity 1
 C         2.871051         2.069814         0.646848
 C         2.361487         0.791563         1.173297
 C         1.764827         0.652412         2.560879
 O         0.473615         0.168927         2.161726
 C         1.122390        -0.059836         0.872977
 C         0.105482        -0.030720        -0.311666
 C         1.979139        -1.345715         1.156850
 C         2.822208        -0.364547         1.956566
 O         4.031373        -0.733836         2.473349
 H         3.560284         2.518680         1.346180
 H         3.345276         2.034052        -0.313291
 H         2.031757         2.797763         0.558958
 H         1.862876         1.096350         3.513484
 H        -0.232214        -1.042928        -0.568565
 H        -0.781870         0.512533        -0.082214
 H         0.574150         0.376423        -1.173706
 H         1.409076        -2.119546         1.609095
 H         2.565206        -1.767390         0.398048
 H         4.635301        -0.013477         2.588245
