19
Iteration:  4495charge 0 multiplicity 1
 C         3.248810         1.633340         0.301623
 C         2.288181         0.805365         1.074257
 C         1.841721         0.743514         2.537335
 O         0.446421         0.501804         2.225480
 C         0.947559        -0.048595         0.917604
 C        -0.081149        -0.155504        -0.221811
 C         1.866710        -1.382389         1.351904
 C         2.815256        -0.322405         1.944249
 O         4.140203        -0.537270         2.509108
 H         3.045062         1.231286        -0.755142
 H         3.188277         2.780918         0.317795
 H         4.223136         1.238841         0.466501
 H         2.052284         1.324233         3.432540
 H        -0.767436        -1.018610         0.119704
 H        -0.607861         0.779372        -0.200301
 H         0.438670        -0.378897        -1.197700
 H         1.127033        -2.015908         1.986559
 H         2.184913        -2.006963         0.462160
 H         3.975541        -0.706983         3.458924
