19
Iteration:  3482
 C         3.216409         1.582114         0.238987
 C         2.355870         0.697983         1.082859
 C         1.816248         0.713450         2.579856
 O         0.480417         0.355821         2.183100
 C         1.024103        -0.042583         0.949551
 C         0.115225        -0.120644        -0.222875
 C         1.870435        -1.406956         1.329534
 C         2.672368        -0.365084         2.023048
 O         3.995684        -0.252455         2.509032
 H         4.021968         1.912280         0.957690
 H         3.611058         1.101170        -0.659713
 H         2.574310         2.437719        -0.113641
 H         1.816417         1.299916         3.558277
 H        -0.965022        -0.370944         0.113756
 H        -0.037185         1.009519        -0.573346
 H         0.383541        -0.848634        -1.109077
 H         1.299601        -2.101696         1.948490
 H         2.068901        -2.041108         0.457929
 H         4.129582        -0.812187         3.281389
