19
Iteration:  1982charge 0 multiplicity 1
 C         2.941191         1.808353         0.278583
 C         2.341435         0.805723         1.141804
 C         1.765130         0.875928         2.492858
 O         0.490762         0.305328         2.214096
 C         1.056275        -0.164385         0.882591
 C         0.171035        -0.078347        -0.331899
 C         1.896202        -1.447838         1.418424
 C         2.800501        -0.336629         2.069723
 O         4.051838        -0.555449         2.527902
 H         3.948094         2.120207         0.714114
 H         3.237742         1.330641        -0.596607
 H         2.370639         2.798585         0.106353
 H         1.859470         1.561317         3.233101
 H        -0.340744        -1.030028        -0.438748
 H        -0.586214         0.737801        -0.433577
 H         0.891907         0.102051        -1.141448
 H         1.299476        -1.996355         2.118606
 H         2.470028        -1.990793         0.629566
 H         3.875576        -1.256720         3.222934
