19
Iteration:   581
 C         2.983615         2.079199         0.456471
 C         2.225501         0.814931         1.112746
 C         1.802852         0.642238         2.528961
 O         0.570405         0.150970         2.247079
 C         0.996419        -0.139726         0.903366
 C         0.236753         0.007777        -0.401382
 C         1.783435        -1.401766         1.357772
 C         2.818605        -0.367329         1.928775
 O         4.019971        -0.608040         2.610198
 H         3.692476         2.511065         1.167178
 H         3.450170         1.850565        -0.625750
 H         2.330544         2.866262         0.269751
 H         1.975643         1.404377         3.407507
 H        -0.586075        -0.714348        -0.353776
 H        -0.283428         0.961752        -0.624829
 H         0.902909        -0.148133        -1.257904
 H         1.347507        -2.216306         1.958234
 H         2.302391        -1.824233         0.482058
 H         4.620085        -1.085062         1.940975
