19
Iteration:  4101
 C         3.300544         1.642250         0.329536
 C         2.332766         0.792870         1.109203
 C         1.893194         0.853008         2.539565
 O         0.526007         0.496355         2.276104
 C         0.949480        -0.058675         0.900879
 C         0.025367        -0.153141        -0.143741
 C         1.723185        -1.315946         1.394776
 C         2.650305        -0.427027         2.057881
 O         4.028197        -0.597968         2.244756
 H         4.350652         1.357297         0.605730
 H         3.004146         1.373905        -0.725636
 H         3.311267         2.717191         0.420874
 H         2.175252         1.639983         3.230310
 H        -0.503102        -1.079792         0.200075
 H        -0.693230         0.690860        -0.317885
 H         0.467243        -0.410845        -1.057759
 H         1.308101        -2.189320         2.088387
 H         2.395300        -1.689351         0.491444
 H         4.181178        -0.847791         3.176599
