19
Iteration:    67
 C         3.039330         2.317422         0.618969
 C         2.240448         0.997390         1.118020
 C         1.811251         0.624799         2.500300
 O         0.541610         0.111489         2.236086
 C         1.113584        -0.154487         0.813491
 C         0.047212        -0.177080        -0.287115
 C         2.000415        -1.320668         1.144726
 C         2.783492        -0.377664         1.960615
 O         3.913266        -0.847858         2.534384
 H         3.762890         2.567925         1.381162
 H         3.597067         2.110527        -0.271595
 H         2.469555         3.257156         0.437137
 H         1.884529         1.257368         3.314342
 H        -0.295628        -1.157061        -0.616331
 H        -0.810968         0.285762         0.149918
 H         0.348503         0.378684        -1.143655
 H         1.635366        -2.128652         1.703340
 H         2.502312        -1.709445         0.318684
 H         4.562641        -0.092539         2.679295
