19
Iteration:   777
 C         2.890949         2.059132         0.537339
 C         2.282572         0.883845         1.121872
 C         1.786488         0.623102         2.568244
 O         0.483198         0.210243         2.290457
 C         1.082706        -0.073796         0.813859
 C         0.198514        -0.056912        -0.401827
 C         1.974382        -1.409692         1.263253
 C         2.782645        -0.347593         1.966678
 O         4.004593        -0.721498         2.502947
 H         3.647955         2.428308         1.215790
 H         3.354800         1.802055        -0.434732
 H         2.182301         2.875653         0.351786
 H         1.929933         1.071568         3.487642
 H        -0.440408        -0.900682        -0.401307
 H        -0.334640         0.867667        -0.683760
 H         0.842455        -0.200113        -1.271796
 H         1.435130        -2.072561         1.968408
 H         2.440975        -1.966971         0.476808
 H         4.521882         0.051557         2.874535
