19
Iteration:  2442
 C         3.241465         1.622515         0.384762
 C         2.262745         0.792623         1.140446
 C         1.665365         0.766385         2.516429
 O         0.435020         0.353948         2.141722
 C         1.047033        -0.170203         0.889479
 C         0.042021        -0.122677        -0.166296
 C         1.903081        -1.316882         1.248831
 C         2.748720        -0.306437         2.075525
 O         4.139339        -0.462070         2.450132
 H         4.012588         2.017598         0.937026
 H         3.770865         0.964305        -0.252835
 H         2.761308         2.393499        -0.181306
 H         1.774600         1.304267         3.456942
 H        -0.877113        -0.675759         0.174755
 H        -0.370396         0.890069        -0.345994
 H         0.337208        -0.521927        -1.208224
 H         1.223808        -2.000014         1.763806
 H         2.425267        -1.577133         0.375827
 H         4.194632        -0.318982         3.444000
