19
Iteration:  3077
 C         3.328858         1.654677         0.371390
 C         2.342922         0.780033         1.086720
 C         1.744829         0.847308         2.467657
 O         0.405790         0.320417         2.192770
 C         1.040684        -0.232029         0.852173
 C        -0.083544        -0.139089        -0.193091
 C         1.891539        -1.317693         1.288000
 C         2.729328        -0.240984         2.143070
 O         4.081943        -0.464767         2.452574
 H         4.250379         1.757409         0.978443
 H         3.622901         1.102600        -0.430484
 H         3.020354         2.656906         0.173905
 H         1.878397         1.718021         3.283851
 H        -0.853263        -0.890548         0.129983
 H        -0.450847         0.889256        -0.403770
 H         0.278955        -0.543583        -1.181073
 H         1.447499        -2.105289         1.880672
 H         2.415975        -1.736641         0.415696
 H         4.014293        -0.832669         3.340637
