19
Iteration:  2921
 C         3.124530         1.698736         0.209400
 C         2.331408         0.829899         1.173555
 C         1.796269         0.744046         2.520370
 O         0.385412         0.401413         2.173589
 C         1.026662        -0.130590         0.960417
 C         0.051057        -0.107544        -0.239957
 C         1.915000        -1.312767         1.271833
 C         2.791404        -0.375954         2.074521
 O         4.086224        -0.529389         2.560578
 H         4.196663         1.810340         0.694533
 H         3.297030         1.144596        -0.749998
 H         2.801172         2.732527        -0.041840
 H         1.994825         1.323313         3.382902
 H        -0.805165        -0.707738         0.136736
 H        -0.271658         0.932396        -0.516570
 H         0.379153        -0.625197        -1.148406
 H         1.424521        -2.032857         1.775669
 H         2.347617        -1.737826         0.358777
 H         4.018937        -1.007756         3.431642
