19
Iteration:  1371charge 0 multiplicity 1
 C         3.006293         1.939166         0.318978
 C         2.312302         0.859188         1.094799
 C         1.779435         0.733259         2.544754
 O         0.485905         0.251844         2.245419
 C         1.044613        -0.186359         0.912682
 C         0.190695        -0.119456        -0.356139
 C         1.820753        -1.360497         1.385214
 C         2.764359        -0.346797         1.966706
 O         4.045028        -0.629723         2.604875
 H         3.875767         2.315290         0.973539
 H         3.356293         1.636232        -0.763526
 H         2.332757         2.785610         0.276404
 H         2.075666         1.256884         3.471214
 H        -0.542261        -0.983323        -0.572091
 H        -0.436224         0.777109        -0.361518
 H         0.900045        -0.051540        -1.187365
 H         1.164191        -2.028941         1.898682
 H         2.371170        -1.939842         0.571776
 H         4.749124        -0.026532         2.402096
