19
Iteration:  1243
 C         2.987193         1.855364         0.504757
 C         2.350214         0.821398         1.259790
 C         1.764605         0.612469         2.608918
 O         0.386668         0.321401         2.057642
 C         1.102773        -0.151104         0.819444
 C         0.077943        -0.101811        -0.273673
 C         1.972017        -1.330622         1.250944
 C         2.776773        -0.359049         2.030652
 O         4.119127        -0.488960         2.460337
 H         3.864040         2.262169         0.994880
 H         3.259998         1.401622        -0.469309
 H         2.167218         2.591710         0.349379
 H         1.823374         1.341600         3.451483
 H        -0.860547        -0.531906         0.006467
 H         0.008923         0.886888        -0.664143
 H         0.403247        -0.705715        -1.115363
 H         1.472895        -2.087869         1.849955
 H         2.548762        -1.639006         0.350207
 H         4.210339        -1.069147         3.252562
