19
Iteration:   879
 C         2.954280         1.991287         0.478868
 C         2.293427         0.831264         1.251011
 C         1.723519         0.506645         2.643715
 O         0.481941         0.129656         2.213502
 C         1.051873        -0.138445         0.823113
 C         0.142709         0.032351        -0.351593
 C         2.013128        -1.289821         1.127568
 C         2.756720        -0.359673         1.987762
 O         4.035867        -0.491101         2.585762
 H         3.845489         2.416068         1.006125
 H         3.418736         1.560778        -0.472348
 H         2.291690         2.776235         0.277894
 H         1.955064         1.109014         3.643660
 H        -0.716594        -0.671373        -0.376352
 H        -0.316366         1.011004        -0.477352
 H         0.754948        -0.323778        -1.206662
 H         1.584009        -2.171235         1.625891
 H         2.593630        -1.648355         0.249281
 H         4.439214        -1.234877         2.135536
