19
Iteration:  4493
 C         3.245428         1.640800         0.294228
 C         2.282443         0.799123         1.076919
 C         1.859906         0.746762         2.536975
 O         0.444858         0.498765         2.230862
 C         0.942593        -0.036508         0.917733
 C        -0.073340        -0.170205        -0.234866
 C         1.847617        -1.372003         1.346489
 C         2.833941        -0.316530         1.959059
 O         4.132343        -0.546445         2.507131
 H         3.016248         1.249333        -0.709362
 H         3.156461         2.718597         0.320167
 H         4.322464         1.311670         0.477679
 H         2.089786         1.328797         3.421576
 H        -0.751681        -0.986927         0.088024
 H        -0.644735         0.726397        -0.209864
 H         0.405165        -0.385804        -1.155048
 H         1.134778        -2.044960         1.991841
 H         2.204893        -2.015212         0.461520
 H         3.938772        -0.696598         3.453240
