19
Iteration:  2379charge 0 multiplicity 1
 C         2.876111         1.774655         0.167337
 C         2.358395         0.789290         1.082475
 C         1.808018         0.802853         2.481128
 O         0.502369         0.343801         2.191087
 C         1.070613        -0.085513         0.934671
 C         0.210500         0.009637        -0.319123
 C         1.891133        -1.399913         1.411692
 C         2.834996        -0.382679         2.042025
 O         4.028731        -0.598820         2.677212
 H         3.656863         2.404803         0.470413
 H         3.034740         1.316798        -0.800772
 H         1.958599         2.575810        -0.049120
 H         2.101628         1.398030         3.348398
 H        -0.523717        -0.730462        -0.074319
 H        -0.292081         0.899930        -0.525720
 H         0.814953        -0.370373        -1.133340
 H         1.253751        -2.194424         2.011268
 H         2.269278        -2.019580         0.654663
 H         4.005105        -1.368534         3.317800
