19
Iteration:  1606charge 0 multiplicity 1
 C         3.066490         1.810973         0.244674
 C         2.355418         0.829155         1.104311
 C         1.794526         0.728623         2.547246
 O         0.446951         0.347175         2.188332
 C         1.064071        -0.210566         0.876887
 C         0.048708        -0.133229        -0.265613
 C         1.966932        -1.329712         1.341096
 C         2.781077        -0.300941         1.987627
 O         4.012488        -0.613402         2.628870
 H         3.969565         2.133023         0.738698
 H         3.381359         1.307556        -0.702652
 H         2.491716         2.722650         0.054448
 H         2.008076         1.339492         3.406142
 H        -0.840465        -0.711807         0.064643
 H        -0.352209         0.880954        -0.423241
 H         0.422681        -0.522172        -1.206739
 H         1.422795        -2.060744         1.979961
 H         2.333176        -1.730279         0.435175
 H         4.252740         0.089985         3.254659
