19
Iteration:  3380charge 0 multiplicity 1
 C         2.900911         1.827235         0.163599
 C         2.382951         0.708665         1.052508
 C         1.902587         0.860182         2.489022
 O         0.514025         0.477529         2.219456
 C         1.045276        -0.126548         0.895679
 C         0.154656        -0.204455        -0.322092
 C         1.856016        -1.332677         1.419607
 C         2.831335        -0.392406         2.010674
 O         3.988622        -0.694906         2.713201
 H         3.662193         2.451722         0.777014
 H         3.275835         1.476149        -0.806454
 H         2.071881         2.438546         0.157422
 H         2.260922         1.638598         3.096153
 H        -0.510072        -1.074043        -0.262394
 H        -0.564224         0.785996        -0.507409
 H         0.701064        -0.227812        -1.266876
 H         1.426218        -2.080111         2.035137
 H         2.189336        -1.841438         0.467972
 H         3.932002        -0.247250         3.593950
