19
Iteration:  1253charge 0 multiplicity 1
 C         2.987136         1.851750         0.423482
 C         2.324176         0.760654         1.192797
 C         1.698649         0.640116         2.605485
 O         0.431267         0.262000         2.116094
 C         1.100246        -0.113363         0.813439
 C         0.079133        -0.068955        -0.308294
 C         2.004953        -1.341471         1.267213
 C         2.810690        -0.326764         2.100112
 O         4.087876        -0.475380         2.521810
 H         3.736269         2.233013         1.106906
 H         3.446733         1.656242        -0.571710
 H         2.417404         2.709417         0.297021
 H         1.871920         1.406613         3.424872
 H        -0.830407        -0.438940         0.148539
 H        -0.199019         0.931472        -0.541843
 H         0.377857        -0.620901        -1.164811
 H         1.454485        -2.148923         1.649073
 H         2.575129        -1.784086         0.413947
 H         4.152176        -1.425443         2.610731
