19
Iteration:  4700charge 0 multiplicity 1
 C         3.227125         1.571975         0.201635
 C         2.276624         0.836462         1.175067
 C         1.708103         0.769218         2.533787
 O         0.417174         0.370264         2.222405
 C         1.044115        -0.148386         0.999105
 C         0.116020        -0.093243        -0.210912
 C         1.924154        -1.319987         1.393386
 C         2.773939        -0.288310         1.994607
 O         3.992872        -0.499023         2.411617
 H         3.126994         2.622259        -0.085556
 H         4.276395         1.526267         0.399342
 H         3.080066         1.128569        -0.875386
 H         1.885542         1.297168         3.479071
 H        -0.730813        -0.807592         0.135063
 H        -0.235861         1.032796        -0.332588
 H         0.688948        -0.472123        -1.080243
 H         1.577773        -2.067622         2.015926
 H         2.356217        -1.802107         0.491250
 H         3.933320        -0.397747         3.377553
