19
Iteration:  4905charge 0 multiplicity 1
 C         3.090608         1.521115         0.120347
 C         2.259233         0.814909         1.140365
 C         1.701206         0.695779         2.593520
 O         0.379166         0.479371         2.185467
 C         1.036860        -0.205555         0.960971
 C         0.179160        -0.133532        -0.271578
 C         1.957816        -1.385290         1.359019
 C         2.796313        -0.318923         2.064917
 O         4.078179        -0.315709         2.564750
 H         3.588834         0.719497        -0.393333
 H         2.693901         2.329818        -0.523681
 H         3.987320         2.010206         0.691470
 H         1.773454         1.401906         3.425002
 H        -0.752963        -0.541749        -0.189702
 H         0.014476         0.974240        -0.469876
 H         0.554072        -0.437617        -1.175624
 H         1.487702        -2.232949         1.963152
 H         2.548311        -1.821230         0.485870
 H         3.895174        -0.941723         3.286128
