19
Iteration:  1309
 C         2.946281         1.872607         0.286575
 C         2.321342         0.840840         1.201766
 C         1.814316         0.643108         2.548143
 O         0.473317         0.305103         2.161275
 C         1.093654        -0.023134         0.873169
 C         0.069266        -0.079562        -0.268330
 C         1.965527        -1.379184         1.201507
 C         2.795496        -0.446109         2.042289
 O         4.049358        -0.587882         2.645061
 H         3.718372         2.431402         0.733484
 H         3.479086         1.506898        -0.579713
 H         2.154415         2.536150        -0.016760
 H         2.121658         1.072336         3.462602
 H        -0.284053        -1.067785        -0.297100
 H        -0.680724         0.681840        -0.215830
 H         0.577412         0.030050        -1.247427
 H         1.414897        -2.215693         1.616727
 H         2.516128        -1.587743         0.284767
 H         3.918582        -0.084352         3.450234
