19
Iteration:   313charge 0 multiplicity 1
 C         2.883835         1.878822         0.395892
 C         2.284382         0.819888         1.165602
 C         1.796836         0.513562         2.615286
 O         0.447509         0.086726         2.249200
 C         1.020734        -0.128186         0.973207
 C         0.249216         0.200185        -0.299956
 C         1.941381        -1.402184         1.098887
 C         2.817071        -0.364556         2.004042
 O         3.991740        -0.484489         2.590245
 H         3.801754         2.355013         0.850534
 H         3.277541         1.556982        -0.562997
 H         2.219580         2.783870         0.136752
 H         1.959786         0.900225         3.606782
 H        -0.595893        -0.440079        -0.514975
 H        -0.111418         1.274283        -0.350259
 H         0.899146         0.008925        -1.238826
 H         1.589672        -2.271193         1.680443
 H         2.547375        -1.601686         0.201330
 H         4.820541        -0.498152         2.048254
