19
Iteration:   877charge 0 multiplicity 1
 C         2.969081         2.016629         0.490505
 C         2.287902         0.860376         1.234064
 C         1.732580         0.492367         2.643486
 O         0.474116         0.124153         2.234090
 C         1.059504        -0.141418         0.818395
 C         0.131669         0.011052        -0.354551
 C         2.016768        -1.293451         1.130746
 C         2.763986        -0.370272         1.982330
 O         4.022444        -0.491170         2.588058
 H         3.880750         2.395558         0.973098
 H         3.404639         1.570450        -0.481343
 H         2.298601         2.784737         0.194750
 H         2.001907         1.134086         3.587083
 H        -0.695646        -0.612238        -0.405983
 H        -0.249602         1.020397        -0.478368
 H         0.724483        -0.315844        -1.239361
 H         1.561520        -2.170118         1.603954
 H         2.562068        -1.654269         0.306735
 H         4.390580        -1.260824         2.166174
