19
Iteration:  4245charge 0 multiplicity 1
 C         2.968072         1.732177         0.125998
 C         2.349930         0.779151         1.140375
 C         1.933777         0.844716         2.535648
 O         0.484951         0.484384         2.283569
 C         1.020484        -0.033593         0.982301
 C         0.046274        -0.018126        -0.218296
 C         1.778095        -1.294812         1.331138
 C         2.812667        -0.453091         2.038721
 O         4.129402        -0.854141         2.481379
 H         3.444444         2.544155         0.712372
 H         3.660637         1.217426        -0.619935
 H         2.269835         2.261488        -0.412669
 H         2.285503         1.665884         3.192357
 H        -0.922521        -0.549461        -0.084876
 H        -0.224214         1.031079        -0.452434
 H         0.451161        -0.411113        -1.154752
 H         1.270418        -1.914341         2.086068
 H         2.208805        -1.921617         0.524507
 H         4.187356        -0.763301         3.452398
