19
Iteration:  1635charge 0 multiplicity 1
 C         3.067142         1.857088         0.274159
 C         2.310794         0.790378         1.050806
 C         1.799717         0.800333         2.490406
 O         0.471933         0.264041         2.233926
 C         1.074271        -0.216072         0.866153
 C         0.075532        -0.120949        -0.236589
 C         1.926805        -1.343852         1.353167
 C         2.748085        -0.283792         2.078944
 O         4.039221        -0.548427         2.562430
 H         3.919170         2.139207         0.907167
 H         3.626450         1.301621        -0.558818
 H         2.625801         2.777593        -0.038605
 H         2.024928         1.835953         3.000748
 H        -0.854900        -0.410126         0.226780
 H        -0.091980         0.876793        -0.731129
 H         0.376747        -0.843877        -1.048903
 H         1.300732        -2.107382         1.831663
 H         2.342769        -1.837643         0.427098
 H         3.891065        -1.053759         3.429605
