19
Iteration:  1051charge 0 multiplicity 1
 C         3.019819         1.991679         0.579099
 C         2.218409         0.815113         1.215678
 C         1.747415         0.652051         2.515479
 O         0.444053         0.204117         2.212316
 C         1.048634        -0.121361         0.871193
 C         0.179887        -0.070408        -0.325652
 C         1.969602        -1.407215         1.166797
 C         2.790601        -0.398943         1.946141
 O         4.086650        -0.576768         2.496877
 H         3.811715         2.461878         1.156932
 H         3.376921         1.695790        -0.439495
 H         2.287895         2.823207         0.461120
 H         2.007565         1.256123         3.465464
 H        -0.800129        -0.502568        -0.083178
 H        -0.047202         0.987272        -0.604754
 H         0.532300        -0.567490        -1.296337
 H         1.483660        -2.305462         1.717468
 H         2.434764        -1.737854         0.253498
 H         4.096407         0.233277         3.105905
