19
Iteration:  2332
 C         2.864361         1.886447         0.274018
 C         2.467527         0.781295         1.053059
 C         1.794202         0.834669         2.474889
 O         0.483098         0.461794         2.177012
 C         1.083848        -0.072265         0.960812
 C         0.188302        -0.250809        -0.308731
 C         1.853857        -1.324389         1.348421
 C         2.765366        -0.410878         2.026339
 O         4.043967        -0.725462         2.616524
 H         3.833246         2.190501         0.684616
 H         3.086317         1.554157        -0.728035
 H         2.173763         2.810684         0.264136
 H         2.153134         1.315421         3.424631
 H        -0.620300        -1.032317        -0.207284
 H        -0.475802         0.673829        -0.424245
 H         0.882972        -0.332091        -1.211917
 H         1.281197        -1.997278         2.156755
 H         2.338548        -2.082430         0.642454
 H         4.074994        -0.285486         3.464068
