19
Iteration:  1818charge 0 multiplicity 1
 C         3.039483         1.876065         0.244771
 C         2.307832         0.808863         1.085566
 C         1.753664         0.801042         2.514094
 O         0.471494         0.248794         2.196540
 C         1.064791        -0.149103         0.836772
 C         0.130743        -0.096255        -0.274556
 C         1.889409        -1.401097         1.433493
 C         2.772335        -0.296031         2.054501
 O         4.078340        -0.569176         2.542532
 H         3.838617         2.242440         0.962783
 H         3.538940         1.527035        -0.596134
 H         2.390618         2.847984         0.149895
 H         1.714629         1.426527         3.473306
 H        -0.637392        -0.793526         0.144236
 H        -0.345283         0.914687        -0.556787
 H         0.653590        -0.426428        -1.235187
 H         1.331549        -2.052257         2.157722
 H         2.375721        -1.884054         0.474984
 H         4.211163        -1.271779         3.170419
