19
Iteration:  4465charge 0 multiplicity 1
 C         3.108579         1.824435         0.207256
 C         2.390617         0.735921         1.035059
 C         1.869235         0.862416         2.486229
 O         0.588215         0.508766         2.261895
 C         1.027881        -0.034316         0.959874
 C         0.099840        -0.233636        -0.147310
 C         1.761557        -1.390644         1.332752
 C         2.738512        -0.352988         2.101722
 O         3.961196        -0.693165         2.449912
 H         3.318141         1.248749        -0.732611
 H         2.530241         2.773046        -0.075408
 H         4.013938         2.097938         0.673599
 H         2.049188         1.419812         3.414150
 H        -0.627358        -1.078764         0.028497
 H        -0.580126         0.655818        -0.268445
 H         0.742997        -0.421670        -1.109199
 H         1.005621        -1.984017         1.747133
 H         2.235642        -1.890968         0.527246
 H         3.938222        -0.871379         3.408542
