19
Iteration:  4678charge 0 multiplicity 1
 C         3.156244         1.672614         0.216055
 C         2.277574         0.774753         1.106369
 C         1.834458         0.848353         2.531601
 O         0.484449         0.444435         2.213670
 C         0.977748        -0.097482         0.912094
 C         0.021641        -0.181530        -0.237585
 C         1.863386        -1.349518         1.296417
 C         2.736616        -0.383127         2.102270
 O         4.111011        -0.565187         2.554880
 H         2.582556         2.520670        -0.165292
 H         4.019619         2.118453         0.653863
 H         3.464389         1.194992        -0.783099
 H         2.019206         1.616945         3.294120
 H        -0.698882        -1.057913        -0.097351
 H        -0.558020         0.827154        -0.231753
 H         0.660627        -0.301740        -1.120189
 H         1.470783        -2.141457         1.848524
 H         2.335431        -1.716387         0.359605
 H         4.131701        -0.607626         3.530691
