19
Iteration:  2458
 C         3.368578         1.702591         0.347576
 C         2.313464         0.864855         1.125160
 C         1.760687         0.779919         2.568606
 O         0.391893         0.294350         2.171416
 C         1.014737        -0.089613         0.881357
 C        -0.042937        -0.189837        -0.222135
 C         1.890245        -1.362533         1.341910
 C         2.703846        -0.330666         2.055273
 O         4.027704        -0.462533         2.401005
 H         4.078238         1.913206         1.233840
 H         3.983495         1.122700        -0.399102
 H         2.955517         2.639306        -0.187414
 H         1.885427         1.398417         3.488638
 H        -0.787563        -0.919491         0.061108
 H        -0.440564         0.808153        -0.413114
 H         0.384547        -0.555854        -1.109031
 H         1.540405        -2.343463         1.893319
 H         2.607333        -1.662243         0.486420
 H         4.332500        -0.274988         3.315642
