19
Iteration:  4136
 C         3.294073         1.665570         0.318910
 C         2.330887         0.803212         1.101125
 C         1.891820         0.788371         2.522916
 O         0.449212         0.520748         2.249007
 C         0.954776        -0.054934         0.990334
 C        -0.083376        -0.115625        -0.156796
 C         1.719697        -1.317429         1.363877
 C         2.769958        -0.401899         1.928897
 O         4.134148        -0.611998         2.355407
 H         4.274409         1.827558         0.839782
 H         3.631301         0.956184        -0.502492
 H         2.875719         2.496561        -0.116342
 H         2.000778         1.438629         3.428458
 H        -0.665390        -0.940451         0.065109
 H        -0.712331         0.695668        -0.313370
 H         0.448394        -0.367828        -1.017478
 H         1.389543        -2.105447         2.199997
 H         2.026741        -1.913378         0.418693
 H         4.229132        -1.094115         3.199531
