19
Iteration:  2895charge 0 multiplicity 1
 C         3.270266         1.724235         0.356247
 C         2.364561         0.788186         1.112210
 C         1.785107         0.827312         2.497538
 O         0.495863         0.285239         2.136999
 C         1.064739        -0.125239         0.903158
 C        -0.100327        -0.143965        -0.210569
 C         1.875556        -1.341235         1.386587
 C         2.721126        -0.287726         2.070384
 O         4.019038        -0.480047         2.428987
 H         4.168706         1.787575         0.900174
 H         3.636526         1.184751        -0.464211
 H         3.120383         2.820730         0.240997
 H         1.888176         1.602083         3.310972
 H        -0.738614        -0.994139         0.128358
 H        -0.530977         0.834047        -0.418448
 H         0.287343        -0.433482        -1.260164
 H         1.193276        -2.073567         2.069686
 H         2.421642        -1.861373         0.567311
 H         3.908871        -1.114857         3.185596
