19
Iteration:  2733
 C         2.981553         1.793565         0.217485
 C         2.343545         0.784259         1.112469
 C         1.856103         0.725854         2.471278
 O         0.481136         0.348048         2.203171
 C         0.964105        -0.113405         0.916206
 C         0.075453         0.016784        -0.299127
 C         1.875450        -1.379915         1.393543
 C         2.807765        -0.384453         2.028153
 O         4.086084        -0.605886         2.582511
 H         4.028970         1.942036         0.757972
 H         3.213788         1.275364        -0.671585
 H         2.480674         2.812795         0.179020
 H         1.992972         1.451918         3.325134
 H        -0.788711        -0.644475        -0.178434
 H        -0.136318         1.044629        -0.592431
 H         0.628048        -0.411784        -1.194714
 H         1.504169        -2.144247         2.135283
 H         2.542549        -2.017553         0.731319
 H         3.976898        -0.569774         3.564839
