19
Iteration:  1571
 C         2.977055         1.760230         0.292556
 C         2.387876         0.742372         1.190319
 C         1.790599         0.777316         2.557010
 O         0.516306         0.420696         2.156931
 C         1.102934        -0.107446         0.943187
 C         0.104051        -0.185921        -0.335158
 C         1.863081        -1.328191         1.279390
 C         2.755442        -0.366417         2.070289
 O         4.000853        -0.553293         2.644222
 H         3.893198         2.105967         0.664502
 H         3.082311         1.366962        -0.796693
 H         2.275458         2.508688         0.167098
 H         2.170683         1.089347         3.624355
 H        -0.456131        -1.120243        -0.362068
 H        -0.600748         0.696377        -0.265996
 H         0.506407        -0.188448        -1.399230
 H         1.368740        -2.155759         1.822476
 H         2.408086        -1.669512         0.392353
 H         4.671353        -0.086127         2.086223
