19
Iteration:  4821charge 0 multiplicity 1
 C         2.998519         1.884749         0.204765
 C         2.373157         0.804140         1.099909
 C         1.904956         0.849109         2.467678
 O         0.444971         0.608989         2.108227
 C         1.081126        -0.191623         1.009823
 C         0.117558        -0.341026        -0.194384
 C         1.889596        -1.375377         1.387760
 C         2.777673        -0.393218         1.949884
 O         3.969683        -0.692791         2.653217
 H         4.091347         1.998896         0.053517
 H         2.750235         1.581522        -0.800392
 H         2.577338         2.888800         0.343039
 H         2.230481         1.553296         3.237579
 H        -0.614760        -1.244299        -0.077215
 H        -0.439646         0.551982        -0.370440
 H         0.882756        -0.620327        -1.028038
 H         1.398193        -2.048947         2.037718
 H         2.292814        -1.827352         0.444980
 H         3.852710        -0.403268         3.582412
