19
Iteration:  3532charge 0 multiplicity 1
 C         3.194556         1.608208         0.252606
 C         2.281247         0.812597         1.072252
 C         1.761227         0.879492         2.521198
 O         0.422379         0.311993         2.157446
 C         1.036632        -0.132420         0.870436
 C         0.077294        -0.135909        -0.178735
 C         1.956596        -1.338446         1.425342
 C         2.724071        -0.257845         2.118681
 O         4.016992        -0.527269         2.474495
 H         4.276863         1.258508         0.449797
 H         2.949126         1.348279        -0.810041
 H         2.939548         2.730753         0.240702
 H         1.690706         1.629523         3.360841
 H        -0.803356        -0.679512        -0.023616
 H        -0.234353         0.893721        -0.456453
 H         0.601854        -0.622339        -0.926740
 H         1.681988        -2.389927         1.849006
 H         2.643073        -1.489241         0.492056
 H         4.205902        -0.532903         3.440245
