19
Iteration:  1104
 C         2.971922         1.928599         0.364767
 C         2.268144         0.881977         1.189345
 C         1.726347         0.655312         2.627498
 O         0.463040         0.123923         2.205746
 C         1.044164        -0.155279         0.935930
 C         0.185790         0.022301        -0.283683
 C         1.986839        -1.365056         1.132145
 C         2.839949        -0.304305         1.962295
 O         3.994516        -0.571153         2.645974
 H         3.746726         2.341100         0.964951
 H         3.349632         1.525764        -0.530862
 H         2.361581         2.772395        -0.105076
 H         1.766230         1.225825         3.617125
 H        -0.445215        -0.887439        -0.510755
 H        -0.426013         0.965752        -0.324969
 H         0.882902         0.007003        -1.221691
 H         1.356838        -2.082793         1.769695
 H         2.651304        -1.651206         0.339764
 H         4.519624        -1.102964         1.957910
