19
Iteration:  4930
 C         3.153614         1.490329         0.175742
 C         2.360878         0.778383         1.184869
 C         1.786377         0.820858         2.515248
 O         0.463085         0.238807         2.203714
 C         1.016890        -0.036638         0.949976
 C         0.164236        -0.154084        -0.320502
 C         1.812943        -1.299546         1.322553
 C         2.702793        -0.331298         2.196805
 O         4.040368        -0.263608         2.526226
 H         3.005614         0.940931        -0.780044
 H         2.708374         2.430377         0.043032
 H         4.222267         1.629718         0.403982
 H         1.791798         1.546783         3.351472
 H        -0.803022        -0.588652        -0.064461
 H        -0.101346         0.652688        -0.825889
 H         0.604168        -0.784252        -1.122477
 H         1.296316        -2.190823         1.766597
 H         2.602151        -1.781781         0.581638
 H         4.011695        -0.733579         3.386647
