19
Iteration:  3889
 C         3.250057         1.562043         0.224581
 C         2.320103         0.789492         1.086762
 C         1.790901         0.827276         2.546649
 O         0.462214         0.415150         2.229041
 C         0.936098        -0.096795         0.921771
 C        -0.084348        -0.088305        -0.197716
 C         1.911374        -1.317340         1.300899
 C         2.766577        -0.268763         2.092698
 O         4.087819        -0.591845         2.452200
 H         3.093458         1.709036        -0.828733
 H         3.515377         2.503252         0.727647
 H         4.239484         0.960317         0.254831
 H         2.090032         1.588687         3.242210
 H        -0.814633        -0.748784         0.265108
 H        -0.497154         0.852099        -0.327230
 H         0.296704        -0.472981        -1.132584
 H         1.475636        -2.101898         2.031506
 H         2.495742        -1.657883         0.466932
 H         3.978644        -0.762927         3.398288
