19
Iteration:  3929charge 0 multiplicity 1
 C         3.341952         1.679488         0.316037
 C         2.324494         0.706970         1.046892
 C         1.839096         0.766023         2.538928
 O         0.484661         0.496078         2.174743
 C         0.998700        -0.091058         0.892018
 C        -0.099461        -0.123460        -0.178933
 C         1.735888        -1.379627         1.474181
 C         2.749001        -0.398002         2.016380
 O         4.118694        -0.457304         2.409719
 H         2.947928         1.761549        -0.723033
 H         3.325967         2.712447         0.686602
 H         4.293428         1.316335         0.337195
 H         2.074514         1.397026         3.405334
 H        -0.662398        -1.060571        -0.074117
 H        -0.902608         0.673056        -0.280330
 H         0.427658        -0.378370        -1.177155
 H         1.167129        -1.967805         2.087313
 H         2.112485        -1.990058         0.656948
 H         4.255780        -1.068362         3.168011
