19
Iteration:  3942charge 0 multiplicity 1
 C         3.206281         1.655058         0.303429
 C         2.395211         0.760743         1.105014
 C         1.926667         0.715993         2.423671
 O         0.458974         0.533022         2.216480
 C         0.896372        -0.022686         0.942707
 C        -0.058226        -0.214757        -0.247516
 C         1.734152        -1.371216         1.447761
 C         2.771186        -0.384012         2.007002
 O         4.147077        -0.497898         2.446851
 H         3.071658         1.744324        -0.754201
 H         3.128763         2.626749         0.769826
 H         4.214209         1.335622         0.422667
 H         2.148921         1.318844         3.284940
 H        -0.816057        -1.028191        -0.080835
 H        -0.477794         0.812305        -0.197076
 H         0.485254        -0.097714        -1.325752
 H         1.207073        -1.991458         2.186408
 H         2.080558        -2.026752         0.718558
 H         4.169322        -0.987795         3.281165
