19
Iteration:  4296
 C         3.277168         1.677684         0.357353
 C         2.391268         0.688850         1.044653
 C         1.878154         0.784004         2.450406
 O         0.572455         0.453533         2.240775
 C         1.003428        -0.043776         0.972567
 C        -0.152935        -0.106151        -0.198640
 C         1.622032        -1.335187         1.375248
 C         2.744458        -0.379418         2.011077
 O         4.144187        -0.512393         2.427969
 H         4.337981         1.645383         0.728290
 H         3.251164         1.343697        -0.700380
 H         2.897307         2.810829         0.494677
 H         2.300328         1.537152         3.099508
 H        -0.627997        -1.141059         0.161454
 H        -0.938233         0.787099        -0.275962
 H         0.268678        -0.243904        -1.206636
 H         1.008399        -2.049243         1.962996
 H         2.097976        -1.940688         0.589095
 H         4.148621        -1.301751         3.002170
