19
Iteration:  4652charge 0 multiplicity 1
 C         3.035695         1.822170         0.235798
 C         2.430937         0.695613         1.043340
 C         1.931822         0.821389         2.488593
 O         0.556632         0.465881         2.162371
 C         1.052247        -0.092874         0.831787
 C        -0.008350        -0.200147        -0.201767
 C         1.775997        -1.363313         1.385496
 C         2.765937        -0.386642         2.003208
 O         4.025840        -0.586161         2.645786
 H         2.188859         2.200099        -0.330491
 H         3.433708         2.683351         0.767913
 H         3.785892         1.645439        -0.511251
 H         2.216509         1.420423         3.352397
 H        -0.529652        -1.101219        -0.036810
 H        -0.646927         0.704322        -0.028418
 H         0.486694        -0.148022        -1.180204
 H         1.265036        -1.984928         2.163680
 H         2.180052        -2.046923         0.658821
 H         3.863771        -1.071509         3.482154
