19
Iteration:   195
 C         2.910548         1.985779         0.624955
 C         2.347671         0.831475         1.282358
 C         1.749374         0.575349         2.638116
 O         0.507931         0.214387         2.065835
 C         1.121885        -0.114671         0.811434
 C         0.052429        -0.043187        -0.182877
 C         2.031871        -1.325073         0.943501
 C         2.785270        -0.447959         1.959734
 O         4.015516        -0.520338         2.620338
 H         3.816381         2.397407         1.153326
 H         3.265399         1.712801        -0.432258
 H         2.193696         2.734834         0.541823
 H         1.998328         0.945213         3.589824
 H        -0.776450        -0.582794         0.287906
 H        -0.273504         1.023025        -0.304281
 H         0.183953        -0.500894        -1.214141
 H         1.418773        -2.157238         1.336762
 H         2.600255        -1.511461        -0.048056
 H         4.578127        -0.784959         1.898370
