19
Iteration:  1786charge 0 multiplicity 1
 C         3.003416         1.785945         0.257689
 C         2.331402         0.805252         1.090499
 C         1.861525         0.748771         2.547625
 O         0.484224         0.333770         2.164332
 C         1.041996        -0.122511         0.935091
 C         0.061331        -0.102250        -0.278751
 C         1.965980        -1.344802         1.332504
 C         2.809698        -0.341140         2.002765
 O         3.935862        -0.538010         2.690407
 H         3.946656         2.106392         0.752329
 H         3.250118         1.414652        -0.726903
 H         2.315616         2.660563         0.017591
 H         1.903002         1.352072         3.470626
 H        -0.403158        -1.091669        -0.296382
 H        -0.732221         0.693539        -0.296598
 H         0.669643        -0.217859        -1.203209
 H         1.642176        -2.144316         2.032087
 H         2.467363        -1.662828         0.350762
 H         4.677223        -1.062472         2.294933
