19
Iteration:  2803
 C         2.930143         1.787443         0.180291
 C         2.349441         0.808506         1.091988
 C         1.796799         0.798986         2.502928
 O         0.464200         0.375348         2.225828
 C         1.083295        -0.153928         0.900453
 C         0.106422        -0.017290        -0.230913
 C         1.945162        -1.326234         1.399546
 C         2.839998        -0.288832         2.009076
 O         4.036699        -0.699645         2.604341
 H         3.768415         2.208189         0.624422
 H         3.366204         1.036104        -0.527648
 H         2.311279         2.507983        -0.224861
 H         2.083078         1.379501         3.339064
 H        -0.707298        -0.692360        -0.131500
 H        -0.101580         1.001890        -0.493531
 H         0.639712        -0.353316        -1.063836
 H         1.180401        -2.145152         1.842761
 H         2.470934        -1.807010         0.518833
 H         3.729533        -1.319619         3.307317
