19
Iteration:  3289
 C         3.322165         1.540195         0.271985
 C         2.297112         0.851678         1.177031
 C         1.685162         0.782975         2.585502
 O         0.388019         0.347221         2.206054
 C         1.029681        -0.091016         0.960720
 C         0.050468        -0.161675        -0.236150
 C         1.905345        -1.353421         1.227130
 C         2.709019        -0.365356         2.071419
 O         4.076793        -0.317293         2.473143
 H         4.317022         1.692360         0.558620
 H         3.335352         0.940388        -0.686673
 H         3.040276         2.673258         0.100018
 H         1.952022         1.355405         3.542580
 H        -1.002233        -0.557447         0.127146
 H        -0.020587         0.765732        -0.927573
 H         0.475726        -0.989636        -0.967301
 H         1.476235        -2.237205         1.866673
 H         2.303712        -1.750768         0.274516
 H         4.059305        -0.869360         3.265371
