19
Iteration:  3324charge 0 multiplicity 1
 C         3.136714         1.618060         0.257129
 C         2.267554         0.775027         1.145470
 C         1.784380         0.818236         2.526024
 O         0.480981         0.335732         2.170534
 C         0.986752        -0.142122         0.862223
 C         0.083692        -0.084814        -0.296404
 C         1.902909        -1.392827         1.352207
 C         2.736364        -0.339819         2.076523
 O         4.106385        -0.386556         2.595223
 H         4.220326         1.481064         0.494054
 H         2.961223         1.245565        -0.796452
 H         2.771561         2.645798         0.194596
 H         2.031475         1.465472         3.414859
 H        -0.952700        -0.447400         0.014411
 H        -0.016256         1.028892        -0.746853
 H         0.498517        -0.781140        -1.038528
 H         1.344316        -2.036607         2.042679
 H         2.318470        -1.870887         0.471987
 H         4.013166        -1.002489         3.330925
