19
Iteration:  1306
 C         2.949146         1.860482         0.292537
 C         2.316995         0.851978         1.164861
 C         1.816797         0.640558         2.542904
 O         0.464213         0.287875         2.181986
 C         1.081618        -0.022559         0.843978
 C         0.074367        -0.056917        -0.265139
 C         1.968809        -1.385058         1.226708
 C         2.813401        -0.411330         2.025496
 O         4.030267        -0.603348         2.653944
 H         3.736133         2.474504         0.806627
 H         3.520038         1.513588        -0.628794
 H         2.236806         2.544831         0.021131
 H         2.185511         0.959610         3.608558
 H        -0.313871        -1.116640        -0.220862
 H        -0.705603         0.692469        -0.239411
 H         0.641328        -0.004441        -1.176474
 H         1.534636        -2.265694         1.609072
 H         2.497071        -1.663422         0.257686
 H         3.869521         0.108284         3.324482
