19
Iteration:   988charge 0 multiplicity 1
 C         2.909532         1.999908         0.578673
 C         2.305272         0.818416         1.202493
 C         1.734180         0.567727         2.585490
 O         0.458419         0.331481         2.057529
 C         1.106105        -0.061938         0.802038
 C         0.071219        -0.151876        -0.225090
 C         2.094442        -1.304649         1.124327
 C         2.813588        -0.409467         2.023117
 O         4.041573        -0.597861         2.592191
 H         3.752684         2.467678         1.145062
 H         3.219291         1.853835        -0.519336
 H         2.096924         2.657451         0.432784
 H         1.713554         1.279846         3.444976
 H        -0.647241        -0.861528         0.071445
 H        -0.326127         0.842517        -0.335989
 H         0.566195        -0.401795        -1.141684
 H         1.512527        -2.083880         1.557095
 H         2.702009        -1.565045         0.267986
 H         4.366916        -1.498455         2.300819
