19
Iteration:  1593charge 0 multiplicity 1
 C         3.044504         1.845886         0.240552
 C         2.347967         0.779981         1.139160
 C         1.760207         0.630481         2.542274
 O         0.403144         0.410728         2.129030
 C         1.062906         0.006179         0.917787
 C         0.086357        -0.185107        -0.195954
 C         1.855207        -1.415946         1.231278
 C         2.858041        -0.378415         2.050731
 O         4.071259        -0.579528         2.679924
 H         4.006191         2.119757         0.542951
 H         3.207558         1.251849        -0.750132
 H         2.482091         2.644070        -0.080717
 H         1.939079         1.520003         3.282843
 H        -0.646421        -0.964682        -0.031924
 H        -0.382122         0.853729        -0.242993
 H         0.580067        -0.353433        -1.194267
 H         1.388489        -2.243486         1.812714
 H         2.501588        -1.884849         0.497397
 H         4.514589         0.284803         2.828473
