19
Iteration:  3812charge 0 multiplicity 1
 C         2.918042         1.772700         0.101048
 C         2.314797         0.671459         1.044878
 C         1.867302         0.882455         2.478603
 O         0.458338         0.481433         2.178618
 C         1.054669        -0.121888         0.897089
 C         0.076804        -0.000930        -0.290309
 C         1.886761        -1.392380         1.558394
 C         2.847950        -0.423441         2.097203
 O         4.131372        -0.713372         2.603708
 H         2.154190         2.406832        -0.360746
 H         3.387380         2.509848         0.784086
 H         3.754686         1.514429        -0.607512
 H         2.125914         1.740370         3.126406
 H        -0.833708        -0.483792        -0.136163
 H        -0.095840         0.992000        -0.308338
 H         0.601704        -0.344559        -1.146643
 H         1.151298        -2.076499         2.094193
 H         2.215396        -1.995597         0.751956
 H         3.882046        -1.283216         3.353577
