19
Iteration:  1599
 C         3.062295         1.838768         0.241747
 C         2.362772         0.797313         1.114003
 C         1.751543         0.662832         2.555661
 O         0.419795         0.384819         2.164196
 C         1.085332        -0.102012         0.927758
 C         0.065408        -0.157418        -0.239703
 C         1.898686        -1.382710         1.280825
 C         2.821854        -0.329893         2.001517
 O         4.039419        -0.593607         2.656618
 H         4.101005         2.070905         0.717682
 H         3.209795         1.290490        -0.646720
 H         2.411918         2.739398        -0.178233
 H         2.054509         1.411164         3.244853
 H        -0.781570        -0.871228        -0.082569
 H        -0.306178         0.844156        -0.288527
 H         0.363307        -0.497383        -1.238339
 H         1.391304        -2.068128         1.957239
 H         2.510422        -1.762399         0.385958
 H         4.488011         0.183336         3.129288
