19
Iteration:  3970charge 0 multiplicity 1
 C         3.079457         1.720720         0.160074
 C         2.376284         0.757437         1.089912
 C         1.886570         0.823423         2.446953
 O         0.536669         0.491586         2.246931
 C         1.045606        -0.034011         0.953861
 C         0.114817        -0.121234        -0.132202
 C         1.749946        -1.417862         1.441303
 C         2.708254        -0.330306         2.030613
 O         4.016319        -0.679702         2.447933
 H         2.979501         1.547928        -0.959664
 H         2.628769         2.734981         0.349894
 H         4.182547         1.780878         0.398805
 H         1.972780         1.476257         3.311075
 H        -0.632625        -0.860887         0.053154
 H        -0.297530         0.891193        -0.356704
 H         0.654924        -0.391775        -0.971528
 H         1.138283        -2.278481         1.868339
 H         2.335585        -1.960710         0.599369
 H         4.027964        -0.776660         3.411788
