19
Iteration:  4910charge 0 multiplicity 1
 C         3.104552         1.514828         0.137801
 C         2.242647         0.781219         1.183324
 C         1.696227         0.744199         2.616039
 O         0.399775         0.453375         2.208745
 C         1.069889        -0.182903         0.909323
 C         0.174817        -0.119327        -0.296279
 C         1.948027        -1.365497         1.346165
 C         2.773211        -0.323591         2.067657
 O         4.080985        -0.290145         2.565654
 H         3.425603         0.692437        -0.591775
 H         2.691495         2.261945        -0.542433
 H         3.938706         1.795206         0.710036
 H         1.906725         1.366318         3.495015
 H        -0.876953        -0.614481        -0.106479
 H        -0.018434         0.906149        -0.553247
 H         0.661754        -0.642863        -1.234884
 H         1.450445        -2.208870         1.800187
 H         2.389748        -1.874283         0.474748
 H         3.990435        -0.934338         3.306459
