19
Iteration:  4027charge 0 multiplicity 1
 C         2.936267         1.694950         0.072592
 C         2.440114         0.779926         1.043436
 C         1.931155         0.731947         2.495266
 O         0.529919         0.473341         2.267511
 C         1.079147        -0.113596         0.953477
 C         0.105165         0.044929        -0.122389
 C         1.796084        -1.416848         1.360717
 C         2.811895        -0.405827         2.001777
 O         3.981328        -0.647922         2.618159
 H         3.689513         1.129093        -0.587502
 H         2.040220         1.911163        -0.594435
 H         3.295206         2.593208         0.396252
 H         2.149629         1.520984         3.233203
 H        -0.890846        -0.114660         0.134210
 H         0.118014         1.111651        -0.353534
 H         0.314200        -0.496452        -1.018988
 H         1.176148        -2.192003         1.742489
 H         2.243246        -1.650377         0.370578
 H         3.862377        -0.879446         3.565614
