19
Iteration:  3504charge 0 multiplicity 1
 C         3.251492         1.549369         0.266351
 C         2.271842         0.812101         1.166956
 C         1.788288         0.763793         2.562990
 O         0.387677         0.350544         2.249381
 C         1.029808        -0.135488         0.814091
 C         0.037224        -0.148702        -0.254212
 C         1.848990        -1.343662         1.309718
 C         2.749914        -0.345549         2.055335
 O         4.114799        -0.309885         2.511138
 H         4.294002         1.471829         0.632942
 H         3.093124         0.943687        -0.620973
 H         2.974071         2.557824         0.004706
 H         1.826442         1.350248         3.504210
 H        -1.064543        -0.387369        -0.015450
 H         0.132303         0.939190        -0.644460
 H         0.462347        -0.786914        -1.137073
 H         1.319149        -2.158787         1.799921
 H         2.255218        -1.949325         0.508043
 H         4.301807        -0.514080         3.456105
