19
Iteration:  3966charge 0 multiplicity 1
 C         3.106970         1.721500         0.189900
 C         2.337784         0.746497         1.081110
 C         1.885029         0.821041         2.450048
 O         0.533734         0.517190         2.251821
 C         1.045015        -0.052882         0.943251
 C         0.076090        -0.117925        -0.135176
 C         1.728877        -1.432621         1.440506
 C         2.769176        -0.345693         2.017518
 O         4.025716        -0.649922         2.440728
 H         2.975873         1.585567        -0.855184
 H         2.691962         2.692331         0.405812
 H         4.265716         1.732650         0.343661
 H         1.897907         1.469520         3.320316
 H        -0.625193        -0.986979         0.082786
 H        -0.284497         0.845848        -0.421799
 H         0.806062        -0.337974        -1.018021
 H         1.115019        -2.325649         1.916197
 H         2.256050        -1.918967         0.597111
 H         3.931646        -0.778636         3.410405
