19
Iteration:  2401charge 0 multiplicity 1
 C         3.028677         1.718507         0.137213
 C         2.332094         0.833267         1.097733
 C         1.814570         0.689468         2.525769
 O         0.477191         0.349425         2.246453
 C         1.067861        -0.186069         0.872021
 C         0.138740        -0.053761        -0.243704
 C         1.851517        -1.349000         1.325319
 C         2.790295        -0.370726         2.046156
 O         4.018792        -0.457850         2.647714
 H         3.667311         2.334582         0.711396
 H         3.490101         1.313576        -0.741631
 H         2.313654         2.613973        -0.168288
 H         2.016392         1.248562         3.440734
 H        -0.848275        -0.474936        -0.204898
 H         0.082440         0.994692        -0.336684
 H         0.775909        -0.360927        -1.060869
 H         1.321245        -2.232825         1.951665
 H         2.304267        -1.884706         0.517416
 H         4.023446        -1.266253         3.172854
