19
Iteration:  1221charge 0 multiplicity 1
 C         3.016229         1.983894         0.434363
 C         2.336415         0.837318         1.212213
 C         1.686478         0.679714         2.593573
 O         0.403223         0.307895         2.209967
 C         1.054115        -0.089558         0.880705
 C         0.197392        -0.148508        -0.319519
 C         1.916134        -1.442241         1.228516
 C         2.793614        -0.422119         1.950017
 O         4.109695        -0.585813         2.491378
 H         3.761077         2.185608         1.196622
 H         3.472373         1.751406        -0.557358
 H         2.364446         2.907840         0.370478
 H         1.817496         1.108536         3.661381
 H        -0.737256        -0.613872        -0.013270
 H         0.009379         0.759476        -0.849684
 H         0.612617        -0.860937        -1.001788
 H         1.301142        -2.197105         1.707509
 H         2.222696        -1.704770         0.187056
 H         4.332291         0.248036         3.027573
