19
Iteration:   414charge 0 multiplicity 1
 C         3.026328         2.156791         0.610451
 C         2.288425         0.919028         1.109864
 C         1.785580         0.629970         2.575543
 O         0.477424         0.251959         2.198762
 C         1.018436        -0.127852         0.889568
 C         0.122614        -0.217128        -0.363540
 C         1.880431        -1.301002         1.277443
 C         2.783506        -0.280437         1.911161
 O         4.045256        -0.787279         2.551143
 H         3.902275         2.369038         1.239466
 H         3.595400         1.787338        -0.364901
 H         2.656078         3.111235         0.249489
 H         2.104227         1.159594         3.483392
 H        -0.709737        -0.997477        -0.236111
 H        -0.548289         0.612737        -0.533643
 H         0.764174        -0.340431        -1.234790
 H         1.389946        -2.034648         1.902686
 H         2.365205        -1.789943         0.346625
 H         4.614712        -0.745880         1.740591
