19
Iteration:   126
 C         2.772446         1.924155         0.450013
 C         2.320487         0.796361         1.287831
 C         1.725369         0.500681         2.674049
 O         0.370281         0.212532         2.229447
 C         1.068809        -0.111894         0.921637
 C         0.342452         0.168181        -0.336035
 C         1.963976        -1.372835         1.096141
 C         2.833037        -0.451984         2.019712
 O         4.114545        -0.593604         2.428455
 H         3.601611         2.416797         0.963448
 H         3.090422         1.660127        -0.534525
 H         1.900612         2.653627         0.404621
 H         1.720041         0.757100         3.784024
 H        -0.547660        -0.529965        -0.433439
 H        -0.006688         1.233499        -0.434688
 H         0.981822        -0.032006        -1.236123
 H         1.478361        -2.218575         1.707121
 H         2.494666        -1.632034         0.125653
 H         4.576756         0.267622         2.481453
