19
Iteration:  2265charge 0 multiplicity 1
 C         3.206425         1.750216         0.317409
 C         2.342537         0.802435         1.200850
 C         1.744513         0.746105         2.536103
 O         0.428041         0.360977         2.061323
 C         0.995226        -0.073942         0.855037
 C        -0.073095        -0.173394        -0.187651
 C         2.050107        -1.361729         1.306806
 C         2.736443        -0.382355         2.084252
 O         4.066149        -0.509376         2.528483
 H         4.016107         2.172797         0.990497
 H         3.595714         1.033771        -0.417315
 H         2.783901         2.630206        -0.265384
 H         1.665366         1.470314         3.319876
 H        -0.993492        -0.676467         0.262857
 H        -0.402815         0.903013        -0.493633
 H         0.315569        -0.745277        -1.094046
 H         1.634554        -2.322812         1.819525
 H         2.640929        -1.806767         0.383765
 H         4.176475        -0.044140         3.408786
