19
Iteration:  4476charge 0 multiplicity 1
 C         3.174189         1.718710         0.209865
 C         2.429570         0.786592         1.100780
 C         1.926969         0.825359         2.522984
 O         0.539489         0.441585         2.258085
 C         0.990583        -0.047824         0.935741
 C        -0.019249        -0.231857        -0.206647
 C         1.740431        -1.272127         1.355340
 C         2.684870        -0.396143         2.037191
 O         4.021123        -0.618861         2.478233
 H         3.319915         1.444536        -0.879131
 H         2.626772         2.710434         0.295427
 H         4.165355         1.810360         0.580765
 H         2.189308         1.562370         3.292373
 H        -0.555418        -1.193539        -0.002589
 H        -0.656682         0.665740        -0.464101
 H         0.674752        -0.439630        -1.122304
 H         1.205336        -2.040648         1.870164
 H         2.193113        -1.602094         0.453476
 H         4.106771        -0.742677         3.442580
