19
Iteration:  4105charge 0 multiplicity 1
 C         3.314834         1.632654         0.342421
 C         2.314129         0.790093         1.093765
 C         1.940013         0.856189         2.556683
 O         0.497235         0.509038         2.296111
 C         0.989368        -0.072079         0.937231
 C        -0.023429        -0.181911        -0.167248
 C         1.720036        -1.302020         1.344330
 C         2.656798        -0.401666         2.057941
 O         4.026371        -0.600710         2.252864
 H         4.345565         1.341149         0.630024
 H         3.130198         1.328571        -0.705498
 H         3.192633         2.708511         0.410616
 H         2.080700         1.719596         3.266035
 H        -0.506435        -1.062972         0.097566
 H        -0.656273         0.623684        -0.324521
 H         0.605002        -0.411302        -1.057168
 H         1.273748        -2.056328         1.980619
 H         2.234976        -1.768947         0.505482
 H         4.342589        -0.873717         3.136471
