19
Iteration:  3678
 C         3.187352         1.533196         0.183817
 C         2.323936         0.770174         1.109595
 C         1.842652         0.757367         2.529697
 O         0.446136         0.410545         2.244162
 C         0.977538        -0.148781         0.899531
 C         0.056299        -0.043825        -0.212938
 C         1.864277        -1.412078         1.314408
 C         2.758457        -0.385400         2.082396
 O         4.029050        -0.328433         2.525366
 H         3.393721         2.516994         0.831249
 H         4.233880         1.092169         0.025495
 H         2.676445         1.699598        -0.756316
 H         2.068790         1.383092         3.377468
 H        -0.904876        -0.344045        -0.029433
 H        -0.009250         0.931236        -0.592577
 H         0.383049        -0.741498        -1.052753
 H         1.429799        -2.192738         2.019963
 H         2.293535        -1.828100         0.304212
 H         4.069329        -0.740723         3.393106
