19
Iteration:  1210
 C         3.025503         1.985874         0.475588
 C         2.276573         0.832985         1.112652
 C         1.794589         0.625982         2.561804
 O         0.394567         0.244488         2.268725
 C         1.075007        -0.111138         0.897686
 C         0.197971        -0.161903        -0.341125
 C         1.886413        -1.325215         1.223740
 C         2.777588        -0.346434         1.960130
 O         4.025887        -0.627956         2.548765
 H         3.885497         2.340803         1.063506
 H         3.506195         1.834159        -0.537888
 H         2.301927         2.853343         0.439527
 H         2.005220         1.373512         3.421814
 H        -0.763514        -0.645744        -0.211005
 H         0.080526         0.785878        -0.820507
 H         0.780808        -0.752067        -1.031523
 H         1.474008        -2.079841         1.876395
 H         2.425525        -1.835292         0.365888
 H         4.531348         0.173626         2.383887
