19
Iteration:  2439charge 0 multiplicity 1
 C         3.213575         1.604215         0.378054
 C         2.257197         0.805605         1.166332
 C         1.664602         0.764884         2.519378
 O         0.435944         0.350574         2.131716
 C         1.064103        -0.153553         0.892643
 C         0.032359        -0.115006        -0.167424
 C         1.895954        -1.331008         1.258328
 C         2.766374        -0.314908         2.046581
 O         4.132612        -0.456169         2.470220
 H         4.091441         2.057996         1.048421
 H         3.841293         0.919147        -0.367291
 H         2.612233         2.319649        -0.159024
 H         1.841837         1.413898         3.386125
 H        -0.880673        -0.680994         0.112013
 H        -0.323878         0.932144        -0.381448
 H         0.331160        -0.508332        -1.165922
 H         1.270810        -1.997877         1.737861
 H         2.460236        -1.579900         0.314077
 H         4.294268        -0.379232         3.422958
