19
Iteration:  3293
 C         3.313252         1.573735         0.255277
 C         2.291678         0.782778         1.181052
 C         1.688056         0.766373         2.586861
 O         0.409070         0.369769         2.241712
 C         0.991402        -0.099452         0.934031
 C         0.087497        -0.159816        -0.230796
 C         1.928652        -1.361567         1.224603
 C         2.655789        -0.354460         2.043608
 O         4.071400        -0.300581         2.483842
 H         4.470259         1.606078         0.588571
 H         3.273652         1.039606        -0.716257
 H         3.079736         2.562856         0.014454
 H         1.891093         1.360589         3.497994
 H        -0.862781        -0.521154         0.092580
 H         0.021360         0.797465        -0.846051
 H         0.489499        -0.975872        -0.732771
 H         1.465960        -2.140529         1.702216
 H         2.352777        -1.731001         0.323537
 H         4.014669        -0.933723         3.243981
