19
Iteration:  1506
 C         2.924136         1.840171         0.306557
 C         2.330332         0.773090         1.145495
 C         1.826882         0.736340         2.541363
 O         0.475569         0.378935         2.156937
 C         1.047752        -0.035786         0.811726
 C         0.112248        -0.104115        -0.298206
 C         1.975025        -1.471565         1.353623
 C         2.740928        -0.385413         2.095722
 O         4.082356        -0.554819         2.542360
 H         3.688315         2.325541         0.870073
 H         3.482941         1.313943        -0.575603
 H         2.275348         2.600932        -0.091028
 H         1.982394         1.363304         3.506453
 H        -0.608574        -0.820045         0.038522
 H        -0.413045         0.875870        -0.374398
 H         0.595993        -0.395021        -1.254498
 H         1.373529        -2.187186         1.929772
 H         2.436696        -1.903201         0.508650
 H         4.141505        -0.664059         3.484165
