19
Iteration:  3021
 C         3.029849         1.804445         0.265209
 C         2.422811         0.728866         1.104144
 C         1.889328         0.856391         2.515812
 O         0.483604         0.471787         2.161621
 C         1.029514        -0.067502         0.909819
 C         0.057680        -0.237206        -0.284383
 C         1.788341        -1.369091         1.337264
 C         2.770487        -0.426277         2.083371
 O         4.071389        -0.579386         2.566956
 H         3.711938         2.320731         0.987901
 H         3.598838         1.496354        -0.486886
 H         2.392682         2.418003        -0.244970
 H         1.958595         1.541652         3.489871
 H        -0.627121        -1.113361        -0.240217
 H        -0.617027         0.659693        -0.385466
 H         0.788207        -0.297062        -1.067656
 H         1.251291        -2.063604         1.929500
 H         2.194208        -1.832254         0.435623
 H         3.984130        -0.952141         3.458044
