19
Iteration:  1856charge 0 multiplicity 1
 C         2.958481         1.847951         0.319788
 C         2.361202         0.736361         1.176252
 C         1.751130         0.749617         2.564631
 O         0.420649         0.457285         2.171546
 C         1.068411        -0.078495         0.936483
 C         0.137322        -0.169024        -0.310798
 C         1.876584        -1.452615         1.257669
 C         2.788173        -0.470547         2.038629
 O         4.129499        -0.516290         2.523933
 H         3.629144         2.045856         1.127913
 H         3.707397         1.653726        -0.579136
 H         2.413057         2.672343        -0.006995
 H         2.040303         1.235532         3.536437
 H        -0.846563        -0.525874         0.005399
 H        -0.028862         0.748969        -0.797308
 H         0.435904        -1.014312        -0.884953
 H         1.488926        -2.344030         1.763702
 H         2.403575        -1.693830         0.375189
 H         4.026333         0.134234         3.248203
