19
Iteration:  4750
 C         3.102776         1.569779         0.225386
 C         2.348870         0.650396         1.087781
 C         1.834314         0.725091         2.466355
 O         0.372531         0.449133         2.189737
 C         1.054833        -0.120426         0.972371
 C         0.075413        -0.049176        -0.211392
 C         1.895824        -1.442465         1.370446
 C         2.746022        -0.390025         2.061971
 O         4.056594        -0.296016         2.527698
 H         3.394875         2.487436         0.776273
 H         4.125286         1.222706        -0.047592
 H         2.619869         1.962281        -0.642524
 H         2.100226         1.526013         3.161002
 H        -0.867926        -0.340494         0.110788
 H         0.011810         1.002303        -0.464924
 H         0.443863        -0.595035        -1.047224
 H         1.339508        -2.288987         1.957862
 H         2.431063        -1.861837         0.507984
 H         4.200507        -0.946456         3.244283
