19
Iteration:  3609charge 0 multiplicity 1
 C         2.938752         1.852668         0.172566
 C         2.399584         0.719932         1.034231
 C         1.877318         0.870638         2.415255
 O         0.512600         0.509425         2.107460
 C         1.012258        -0.159686         0.948840
 C         0.189266        -0.183510        -0.218731
 C         1.877512        -1.423304         1.484264
 C         2.762848        -0.392213         2.110421
 O         3.989753        -0.648979         2.608943
 H         3.902013         2.367851         0.603269
 H         3.121783         1.604009        -0.898976
 H         2.100594         2.611487         0.194999
 H         2.198909         1.708253         3.121203
 H        -0.522424        -0.967096        -0.107440
 H        -0.441884         0.773733        -0.171355
 H         0.680094        -0.303759        -1.125880
 H         1.211797        -1.965230         2.177434
 H         2.421664        -1.971314         0.620656
 H         3.970262        -1.111885         3.469068
