19
Iteration:  3706charge 0 multiplicity 1
 C         3.295680         1.524111         0.228360
 C         2.352693         0.739109         1.110664
 C         1.771356         0.794657         2.507170
 O         0.439370         0.311268         2.113736
 C         0.984574        -0.179487         0.829263
 C        -0.059675        -0.006107        -0.154999
 C         1.849295        -1.382746         1.397380
 C         2.784252        -0.284367         2.112884
 O         4.116379        -0.363582         2.510761
 H         3.233747         2.472382         0.662906
 H         4.300788         1.145383         0.254838
 H         2.842572         1.746512        -0.775715
 H         1.714253         1.441099         3.376760
 H        -0.987187        -0.578135         0.327207
 H        -0.314249         1.134753        -0.375959
 H         0.081334        -0.409505        -1.152413
 H         1.369791        -2.021790         2.103212
 H         2.351079        -1.811050         0.547443
 H         4.148809        -0.812794         3.374085
