19
Iteration:  4676charge 0 multiplicity 1
 C         3.149112         1.687414         0.214733
 C         2.275076         0.757717         1.104144
 C         1.836531         0.833435         2.515192
 O         0.491848         0.448084         2.217263
 C         0.997849        -0.089157         0.922579
 C         0.004812        -0.186095        -0.252439
 C         1.853291        -1.334386         1.296386
 C         2.751146        -0.387560         2.120152
 O         4.111174        -0.565531         2.558818
 H         2.558888         2.474326        -0.160127
 H         3.979068         2.137662         0.643071
 H         3.510584         1.209580        -0.751520
 H         2.025244         1.627381         3.251052
 H        -0.634528        -1.047546        -0.073286
 H        -0.593728         0.828814        -0.274706
 H         0.607478        -0.277500        -1.138809
 H         1.450529        -2.161077         1.819518
 H         2.319798        -1.732209         0.401013
 H         4.082242        -0.626681         3.530497
