19
Iteration:  3912
 C         3.317948         1.631076         0.291005
 C         2.413422         0.834864         1.115387
 C         1.815896         0.863961         2.477084
 O         0.477824         0.418286         2.161400
 C         1.012715        -0.140945         0.935289
 C        -0.020039        -0.171225        -0.083890
 C         1.752257        -1.411413         1.339419
 C         2.720494        -0.343181         2.084992
 O         4.003571        -0.483377         2.351893
 H         3.066055         1.745734        -0.754980
 H         3.457897         2.610516         0.775939
 H         4.399523         1.142365         0.316142
 H         1.973659         1.635748         3.225061
 H        -0.806104        -0.892246         0.192274
 H        -0.409728         0.780828         0.109868
 H         0.309679        -0.195327        -1.096591
 H         1.148790        -2.095786         2.098236
 H         2.339031        -1.875158         0.545628
 H         4.031079        -1.037753         3.163974
