19
Iteration:  4662charge 0 multiplicity 1
 C         3.025244         1.742842         0.222680
 C         2.472480         0.719703         1.046637
 C         1.903687         0.765504         2.445415
 O         0.514827         0.453356         2.224964
 C         1.050461        -0.064386         0.869965
 C        -0.028623        -0.163024        -0.255298
 C         1.797604        -1.332868         1.390879
 C         2.799547        -0.349534         2.078965
 O         4.050039        -0.571879         2.612432
 H         2.284532         2.396479        -0.283269
 H         3.589368         2.358599         0.995701
 H         3.671824         1.265818        -0.446121
 H         2.169316         1.484048         3.213923
 H        -0.558862        -1.071718        -0.102250
 H        -0.840233         0.526747        -0.300096
 H         0.355802        -0.332792        -1.269072
 H         0.990825        -2.051965         1.814225
 H         2.407816        -1.663296         0.563472
 H         4.022670        -0.901436         3.534756
