19
Iteration:  4506
 C         3.258219         1.572206         0.238763
 C         2.336904         0.834401         1.136009
 C         1.746673         0.759591         2.499913
 O         0.461945         0.453636         2.158177
 C         1.024121        -0.144600         0.916801
 C        -0.068107        -0.053537        -0.080428
 C         1.868519        -1.393921         1.366539
 C         2.714759        -0.401990         1.955058
 O         4.113332        -0.448487         2.472240
 H         3.232550         1.549207        -0.897840
 H         3.406443         2.702849         0.498875
 H         4.197132         1.176726         0.578074
 H         1.944622         1.328422         3.405754
 H        -0.905711        -0.850662         0.000721
 H        -0.499467         0.905895        -0.243255
 H         0.359485        -0.275656        -1.113629
 H         1.434937        -2.122466         2.198586
 H         2.274638        -1.853113         0.408906
 H         4.143244        -0.772989         3.389164
