19
Iteration:  4326
 C         3.387362         1.599995         0.297960
 C         2.316306         0.841923         1.108139
 C         1.802859         0.744301         2.510020
 O         0.465948         0.516591         2.225075
 C         1.011265        -0.127883         0.987872
 C        -0.088104        -0.101904        -0.089975
 C         1.826297        -1.390420         1.315770
 C         2.713806        -0.340047         1.991856
 O         4.039691        -0.539686         2.347811
 H         4.310935         1.074839         0.291352
 H         3.029281         1.531001        -0.690149
 H         3.421959         2.740019         0.390610
 H         2.252996         1.396099         3.246343
 H        -0.801098        -0.841732         0.143795
 H        -0.667774         0.805606         0.038487
 H         0.366435        -0.287286        -1.036738
 H         1.376590        -2.254247         1.976249
 H         2.438992        -1.728547         0.447412
 H         3.907938        -0.840496         3.270821
