19
Iteration:  1441
 C         3.079062         1.898996         0.323005
 C         2.311498         0.870447         1.030728
 C         1.782616         0.713828         2.550305
 O         0.489445         0.161520         2.185667
 C         1.123420        -0.125593         0.890061
 C         0.034576        -0.149713        -0.233163
 C         1.925560        -1.313285         1.274240
 C         2.791298        -0.271481         2.044259
 O         3.998432        -0.547609         2.664453
 H         3.925569         2.199186         0.916771
 H         3.479341         1.375582        -0.642811
 H         2.527110         2.827354         0.044019
 H         1.713736         1.556622         3.326088
 H        -0.943908        -0.177019         0.166280
 H         0.045379         0.839965        -0.739009
 H         0.164684        -0.845337        -1.086638
 H         1.364919        -1.999379         1.937713
 H         2.503053        -1.847355         0.573629
 H         4.206014        -1.305903         2.067687
