19
Iteration:  4462
 C         3.091551         1.824371         0.211242
 C         2.357371         0.750614         1.036786
 C         1.882737         0.865031         2.480499
 O         0.565532         0.528234         2.250759
 C         1.056669        -0.049732         0.961729
 C         0.128166        -0.215205        -0.129281
 C         1.751254        -1.400944         1.330167
 C         2.756599        -0.348979         2.092382
 O         3.964453        -0.717088         2.454555
 H         3.359104         1.279605        -0.768023
 H         2.482755         2.754870        -0.146978
 H         3.969969         2.241856         0.688677
 H         2.069395         1.405535         3.400139
 H        -0.655619        -1.086055         0.021834
 H        -0.534018         0.633948        -0.295745
 H         0.666604        -0.404095        -1.122349
 H         0.992668        -2.085191         1.905155
 H         2.341503        -1.963386         0.534122
 H         3.907356        -0.924272         3.405124
