19
Iteration:  2898charge 0 multiplicity 1
 C         3.257234         1.705196         0.356090
 C         2.343152         0.784846         1.089508
 C         1.754386         0.825703         2.533196
 O         0.502517         0.289772         2.143339
 C         1.075263        -0.083305         0.866981
 C        -0.092999        -0.153779        -0.202758
 C         1.858119        -1.355014         1.395020
 C         2.727004        -0.267738         2.056312
 O         4.052419        -0.497361         2.454384
 H         4.269907         1.761410         0.948399
 H         3.550008         1.205545        -0.593493
 H         3.007243         2.795200         0.167160
 H         1.886151         1.517097         3.307792
 H        -0.813875        -0.957899         0.099260
 H        -0.473904         0.868708        -0.419226
 H         0.328815        -0.432377        -1.230068
 H         1.335454        -2.037190         1.969305
 H         2.445953        -1.831136         0.584819
 H         3.885576        -1.105577         3.175208
