19
Iteration:  2918
 C         3.153882         1.675851         0.210972
 C         2.308712         0.844810         1.160743
 C         1.803238         0.743444         2.514380
 O         0.385359         0.398202         2.176583
 C         1.013792        -0.155077         0.938033
 C         0.042058        -0.100867        -0.237189
 C         1.918079        -1.285878         1.274456
 C         2.785819        -0.355000         2.069635
 O         4.103693        -0.535778         2.561584
 H         4.105395         1.853312         0.663761
 H         3.371704         1.187911        -0.666605
 H         2.826335         2.720594         0.137814
 H         1.881590         1.311579         3.420825
 H        -0.747203        -0.745469         0.209709
 H        -0.311080         0.902432        -0.496231
 H         0.348747        -0.643636        -1.196188
 H         1.276178        -2.049131         1.872004
 H         2.406589        -1.775333         0.387065
 H         4.076502        -1.033758         3.393821
