19
Iteration:  2876
 C         3.394144         1.736039         0.443611
 C         2.322568         0.807393         1.030896
 C         1.762412         0.800470         2.458517
 O         0.434403         0.430721         2.186765
 C         0.986032        -0.177804         0.873019
 C        -0.039912        -0.234185        -0.149423
 C         1.801137        -1.413685         1.355848
 C         2.693614        -0.350495         2.017958
 O         4.084144        -0.442621         2.417481
 H         4.269295         2.027271         1.174779
 H         3.773369         1.424538        -0.541398
 H         2.778277         2.675832         0.274935
 H         2.029216         1.377369         3.328116
 H        -0.777619        -1.050851        -0.033908
 H        -0.427860         0.822327        -0.113612
 H         0.418971        -0.256228        -1.201290
 H         1.382411        -2.136114         1.928093
 H         2.383566        -1.877336         0.542638
 H         4.195099        -0.895350         3.308992
