19
Iteration:   243charge 0 multiplicity 1
 C         3.043913         2.152161         0.723979
 C         2.277653         0.984258         1.127737
 C         1.760872         0.692552         2.496366
 O         0.517262         0.162369         2.185719
 C         0.990718        -0.218558         0.786183
 C         0.036572        -0.158350        -0.277597
 C         1.948965        -1.335532         1.214350
 C         2.904016        -0.318636         1.829452
 O         3.984142        -0.733181         2.566187
 H         3.760081         2.291477         1.518447
 H         3.708327         2.036601        -0.174484
 H         2.398021         3.151123         0.596890
 H         1.865980         1.276159         3.546035
 H        -0.577234        -1.118430        -0.395680
 H        -0.690441         0.636191        -0.144383
 H         0.578487        -0.132070        -1.157900
 H         1.447947        -2.122967         1.761119
 H         2.519568        -1.671111         0.397720
 H         4.777133        -0.872751         1.924273
