19
Iteration:  4748
 C         3.099484         1.551058         0.232860
 C         2.362420         0.660158         1.090585
 C         1.833104         0.737077         2.471279
 O         0.385394         0.440277         2.199848
 C         1.052378        -0.119945         0.969158
 C         0.068372        -0.046421        -0.223675
 C         1.885003        -1.439083         1.359078
 C         2.727164        -0.394788         2.070092
 O         4.069868        -0.287861         2.528058
 H         3.380260         2.537574         0.807728
 H         4.190603         1.213210        -0.047560
 H         2.584135         1.900433        -0.639859
 H         2.058696         1.555540         3.148453
 H        -0.952080        -0.356295         0.113643
 H         0.040766         0.973139        -0.482058
 H         0.448983        -0.593065        -1.153172
 H         1.365516        -2.295130         1.950880
 H         2.381022        -1.885976         0.493038
 H         4.245290        -0.928549         3.240807
