19
Iteration:  2035charge 0 multiplicity 1
 C         3.139071         1.700798         0.321571
 C         2.307427         0.819372         1.230860
 C         1.844290         0.750210         2.585722
 O         0.413791         0.303511         2.213947
 C         1.041903        -0.139510         0.884168
 C         0.128656        -0.183855        -0.310823
 C         1.816964        -1.336661         1.281772
 C         2.773526        -0.316992         1.970044
 O         4.049805        -0.398337         2.515850
 H         3.958487         2.299109         0.884140
 H         3.493161         1.074707        -0.508245
 H         2.524130         2.612197        -0.022017
 H         1.962191         1.383407         3.344090
 H        -0.744695        -0.746546         0.011695
 H        -0.115291         0.841744        -0.628700
 H         0.604413        -0.654613        -1.178463
 H         1.537060        -2.169407         1.902245
 H         2.158661        -1.799780         0.293788
 H         3.947813        -0.910041         3.375626
