19
Iteration:  2569charge 0 multiplicity 1
 C         2.832914         1.798412         0.137977
 C         2.332045         0.805744         1.075268
 C         1.900327         0.800327         2.583515
 O         0.547459         0.381626         2.259458
 C         1.051829        -0.126159         0.960745
 C         0.274921        -0.002019        -0.337056
 C         1.861650        -1.390411         1.342837
 C         2.789361        -0.351132         1.998049
 O         3.970359        -0.692409         2.646613
 H         3.720114         2.474389         0.303567
 H         3.008180         1.327182        -0.831297
 H         2.033470         2.494032        -0.013719
 H         1.974739         1.294883         3.524461
 H        -0.631210        -0.519899        -0.160890
 H         0.029168         1.002842        -0.642166
 H         0.697627        -0.530897        -1.167460
 H         1.568706        -2.306094         1.979106
 H         2.281538        -2.061924         0.484308
 H         3.887683        -0.692335         3.606984
