19
Iteration:   905
 C         2.875825         1.908660         0.471969
 C         2.267790         0.788773         1.331537
 C         1.656096         0.604275         2.624556
 O         0.331718         0.207438         2.140074
 C         1.154309        -0.132567         0.823604
 C         0.249354         0.078192        -0.277194
 C         2.012940        -1.360846         1.118246
 C         2.798982        -0.458844         2.042863
 O         4.148009        -0.538137         2.570077
 H         3.737639         2.467028         0.856841
 H         3.223215         1.333821        -0.328531
 H         2.127788         2.737182         0.116141
 H         1.866926         1.280498         3.331607
 H        -0.566495        -0.758873        -0.380566
 H        -0.350869         0.973386         0.020307
 H         0.720454         0.173149        -1.256993
 H         1.441675        -2.283613         1.403099
 H         2.599988        -1.553573         0.137950
 H         4.705014        -0.294252         1.833397
