19
Iteration:   848charge 0 multiplicity 1
 C         3.001466         2.110489         0.560026
 C         2.257055         0.915816         1.106347
 C         1.740919         0.637888         2.542950
 O         0.533222         0.078256         2.179435
 C         1.029477        -0.126096         0.871537
 C         0.118104        -0.069869        -0.248672
 C         1.971316        -1.291565         1.099969
 C         2.817074        -0.348813         1.873687
 O         3.993714        -0.603592         2.692968
 H         3.856150         2.191385         1.278791
 H         3.488937         1.958598        -0.415794
 H         2.412461         3.030763         0.414711
 H         2.066191         1.184277         3.491594
 H        -0.761285        -0.802042         0.002978
 H        -0.237477         0.849923        -0.740461
 H         0.607171        -0.694729        -1.038693
 H         1.532623        -2.112898         1.712728
 H         2.427714        -1.776771         0.152413
 H         4.315392        -1.433099         2.228665
