19
Iteration:  2047
 C         3.133397         1.733229         0.324424
 C         2.292115         0.816344         1.036726
 C         1.782640         0.674799         2.594749
 O         0.494077         0.299090         2.243066
 C         1.006234        -0.093942         0.917473
 C         0.107509        -0.175454        -0.280338
 C         1.900663        -1.333560         1.284059
 C         2.761238        -0.309861         2.015115
 O         4.004578        -0.421976         2.527393
 H         3.970536         2.019340         1.056086
 H         3.719975         1.267877        -0.451535
 H         2.563413         2.583821        -0.239741
 H         2.071057         1.181875         3.457491
 H        -0.864883        -0.612449        -0.081945
 H        -0.138470         0.811603        -0.743461
 H         0.605872        -0.821357        -1.001906
 H         1.185010        -1.991609         1.746844
 H         2.589396        -1.698286         0.461306
 H         3.878316        -0.581432         3.472864
