19
Iteration:  4626charge 0 multiplicity 1
 C         2.947907         1.953381         0.174154
 C         2.442363         0.742623         0.990870
 C         1.904292         0.829776         2.415145
 O         0.454031         0.512198         2.142418
 C         1.028668        -0.161892         0.900319
 C         0.072969        -0.139574        -0.164917
 C         1.829247        -1.410248         1.526180
 C         2.803526        -0.382943         1.958731
 O         4.029186        -0.744745         2.645015
 H         2.386703         2.318304        -0.767121
 H         3.290018         2.912485         0.743227
 H         3.958774         1.795268        -0.208387
 H         2.247287         1.372512         3.306902
 H        -0.516732        -1.060220         0.074945
 H        -0.302510         0.792434        -0.096648
 H         0.705706        -0.195390        -1.060718
 H         1.389627        -2.217071         2.291264
 H         2.322846        -2.063168         0.719322
 H         3.805231        -1.179873         3.496805
