19
Iteration:     2
 C         2.959197         2.020407         0.596104
 C         2.285112         0.855832         1.236953
 C         1.749051         0.552501         2.606375
 O         0.464652         0.116968         2.166707
 C         1.075169        -0.100133         0.854796
 C         0.110686         0.019897        -0.284385
 C         1.988151        -1.341774         1.071806
 C         2.806244        -0.389817         1.969338
 O         4.079232        -0.535919         2.449532
 H         3.760925         2.378138         1.231656
 H         3.352675         1.776097        -0.361467
 H         2.218355         2.864971         0.462945
 H         1.878823         1.021011         3.548144
 H        -0.627326        -0.811855        -0.189890
 H        -0.376330         0.980073        -0.288683
 H         0.616375        -0.125341        -1.228434
 H         1.536223        -2.244692         1.569422
 H         2.577394        -1.599478         0.190993
 H         4.046560        -1.018673         3.297299
