19
Iteration:  3454charge 0 multiplicity 1
 C         3.088453         1.741258         0.227798
 C         2.331554         0.769370         1.062283
 C         1.806037         0.846584         2.474928
 O         0.454944         0.397148         2.135300
 C         0.990768        -0.151012         0.918530
 C         0.067145        -0.107939        -0.271051
 C         1.894605        -1.418965         1.433475
 C         2.751125        -0.305038         2.089836
 O         4.162483        -0.559201         2.595783
 H         3.596469         2.360334         0.897207
 H         3.790511         1.092197        -0.334624
 H         2.374854         2.344260        -0.410801
 H         1.805715         1.644432         3.145839
 H        -0.832044        -0.598122         0.089618
 H        -0.254574         0.881602        -0.325240
 H         0.297740        -0.440505        -1.233053
 H         1.337451        -2.293963         1.924186
 H         2.250959        -1.969937         0.576229
 H         3.972588        -0.986395         3.452242
