19
Iteration:  3213charge 0 multiplicity 1
 C         2.932668         1.812239         0.245761
 C         2.383159         0.754024         1.027183
 C         1.932690         0.773247         2.466462
 O         0.525255         0.473020         2.183964
 C         1.027252        -0.038945         0.888734
 C         0.058269        -0.181361        -0.303890
 C         1.864163        -1.399556         1.410267
 C         2.809861        -0.455519         2.004519
 O         4.037906        -0.577873         2.680129
 H         3.438188         2.485664         0.939607
 H         3.840557         1.471627        -0.349813
 H         2.266589         2.566023        -0.366236
 H         2.263212         1.388828         3.305860
 H        -0.507048        -1.140438         0.008034
 H        -0.698687         0.672584        -0.438190
 H         0.541152        -0.202104        -1.346900
 H         1.187693        -1.941143         2.062854
 H         2.311901        -2.006282         0.659582
 H         3.623573        -0.856489         3.540126
