19
Iteration:  3534charge 0 multiplicity 1
 C         3.184471         1.631533         0.255383
 C         2.289853         0.824130         1.052038
 C         1.763265         0.877220         2.514413
 O         0.421232         0.320154         2.157739
 C         1.052635        -0.129990         0.877112
 C         0.086672        -0.162932        -0.158522
 C         1.959866        -1.350103         1.411356
 C         2.710113        -0.265321         2.135949
 O         4.010755        -0.536687         2.473600
 H         4.312768         1.268052         0.397579
 H         2.923736         1.378196        -0.779106
 H         2.948185         2.644319         0.218398
 H         1.707544         1.643623         3.367331
 H        -0.798055        -0.659858        -0.076703
 H        -0.219167         0.938412        -0.374455
 H         0.600633        -0.586650        -1.010546
 H         1.626366        -2.305548         1.925066
 H         2.640824        -1.496145         0.452571
 H         4.143980        -0.524824         3.434347
