19
Iteration:  4679
 C         3.157858         1.663300         0.214503
 C         2.281715         0.784632         1.107062
 C         1.833069         0.854861         2.538750
 O         0.480060         0.442425         2.211946
 C         0.968642        -0.102265         0.907874
 C         0.028928        -0.177576        -0.228525
 C         1.869345        -1.355525         1.296256
 C         2.730577        -0.379313         2.092307
 O         4.109571        -0.564833         2.552268
 H         2.585527         2.552882        -0.167327
 H         4.057659         2.110414         0.674443
 H         3.438228         1.187617        -0.779189
 H         2.016227         1.604924         3.315676
 H        -0.722637        -1.050445        -0.114034
 H        -0.528869         0.801421        -0.215874
 H         0.683095        -0.314499        -1.117055
 H         1.461599        -2.157837         1.877298
 H         2.346693        -1.705097         0.343288
 H         4.153026        -0.598274         3.528702
