19
Iteration:   977charge 0 multiplicity 1
 C         2.899334         2.032776         0.529531
 C         2.376826         0.841908         1.212577
 C         1.835420         0.594774         2.556064
 O         0.418315         0.248094         2.084185
 C         1.050325        -0.102647         0.908995
 C         0.105728        -0.068496        -0.302772
 C         2.032808        -1.338384         1.141332
 C         2.781103        -0.385148         2.018460
 O         4.032174        -0.586182         2.565903
 H         3.677214         2.579601         1.126919
 H         3.370532         1.657317        -0.454637
 H         2.169087         2.770986         0.473433
 H         1.956220         1.248136         3.499414
 H        -0.524265        -0.910221        -0.127562
 H        -0.627579         0.708123        -0.412340
 H         0.542261        -0.338384        -1.245543
 H         1.811883        -2.321033         1.534623
 H         2.638225        -1.478506         0.255723
 H         4.166436        -1.477303         2.887362
