19
Iteration:  3921
 C         3.339633         1.687862         0.292800
 C         2.370680         0.713657         1.121290
 C         1.823083         0.821826         2.547350
 O         0.500088         0.452584         2.146426
 C         1.005241        -0.151897         0.933004
 C        -0.057392        -0.131202        -0.127991
 C         1.757897        -1.383321         1.395804
 C         2.665730        -0.338579         2.013928
 O         4.072551        -0.465451         2.382874
 H         3.097365         1.765413        -0.759052
 H         3.433810         2.693774         0.703488
 H         4.332500         1.184945         0.310011
 H         2.103755         1.590231         3.249165
 H        -0.643901        -1.060128         0.138154
 H        -0.701018         0.749155        -0.131483
 H         0.305297        -0.274679        -1.256722
 H         1.085705        -2.053765         2.075825
 H         2.095967        -2.014689         0.637357
 H         4.236847        -1.056550         3.153373
