19
Iteration:  2459
 C         3.370218         1.703810         0.347155
 C         2.309437         0.869597         1.128964
 C         1.760417         0.776875         2.569119
 O         0.396039         0.293507         2.171370
 C         1.016645        -0.087427         0.884444
 C        -0.046018        -0.193112        -0.221505
 C         1.890897        -1.369643         1.346282
 C         2.705552        -0.328661         2.047410
 O         4.020742        -0.462466         2.401912
 H         4.110022         1.921229         1.257382
 H         4.019515         1.113676        -0.426269
 H         2.933674         2.627810        -0.155050
 H         1.910159         1.422579         3.462253
 H        -0.800914        -0.921598         0.041061
 H        -0.462512         0.803211        -0.438336
 H         0.393587        -0.551771        -1.123254
 H         1.530746        -2.309724         1.900416
 H         2.614823        -1.643635         0.475976
 H         4.352460        -0.284660         3.313356
