19
Iteration:   831
 C         2.947673         2.074374         0.632078
 C         2.391876         0.853287         1.160925
 C         1.855793         0.632523         2.545080
 O         0.439660         0.231073         2.123685
 C         1.089437        -0.099413         0.778746
 C         0.021429        -0.177452        -0.298490
 C         2.024729        -1.291774         1.152026
 C         2.828833        -0.385900         1.996247
 O         3.970387        -0.639463         2.635688
 H         3.821867         2.414084         1.179833
 H         3.287104         2.017186        -0.419096
 H         2.073627         2.831564         0.671007
 H         1.870087         1.249028         3.366590
 H        -0.862672        -0.688551         0.061131
 H        -0.359556         0.855158        -0.393711
 H         0.216555        -0.639230        -1.281319
 H         1.594863        -2.250255         1.472878
 H         2.628460        -1.560116         0.313739
 H         4.619480        -1.041988         1.994351
