19
Iteration:  1512
 C         2.981181         1.840750         0.284344
 C         2.321208         0.791262         1.160150
 C         1.791538         0.734222         2.541691
 O         0.472318         0.346097         2.167738
 C         1.062857        -0.107292         0.868638
 C         0.111747        -0.092348        -0.309299
 C         1.947229        -1.442671         1.366103
 C         2.813171        -0.338221         2.079872
 O         4.033809        -0.551174         2.524049
 H         3.771327         2.517084         0.769835
 H         3.416251         1.413181        -0.556384
 H         2.225919         2.645524        -0.010244
 H         2.103607         1.425985         3.244646
 H        -0.695785        -0.859903        -0.080149
 H        -0.450759         0.833444        -0.406881
 H         0.698807        -0.212156        -1.233348
 H         1.403026        -2.105339         2.065226
 H         2.455568        -2.082261         0.524588
 H         3.995820        -0.995076         3.424329
