19
Iteration:  2041
 C         3.134948         1.726731         0.327401
 C         2.304194         0.785377         1.151145
 C         1.835078         0.685547         2.586190
 O         0.449897         0.299418         2.229361
 C         1.037195        -0.136499         0.911807
 C         0.118047        -0.172508        -0.302793
 C         1.848128        -1.300886         1.268811
 C         2.776302        -0.260805         1.988985
 O         4.011819        -0.407101         2.514609
 H         3.902126         2.094769         0.950288
 H         3.643760         1.163634        -0.519033
 H         2.605525         2.522885        -0.127319
 H         2.097904         1.366791         3.517276
 H        -0.818778        -0.743449        -0.076807
 H        -0.105936         0.826692        -0.666036
 H         0.573853        -0.823727        -1.078613
 H         1.297570        -2.164266         1.779706
 H         2.324937        -1.791261         0.441337
 H         3.810322        -0.717545         3.406925
