19
Iteration:  2816charge 0 multiplicity 1
 C         3.123193         1.822156         0.174995
 C         2.317963         0.838932         1.112735
 C         1.824798         0.802744         2.508465
 O         0.465530         0.331914         2.179433
 C         1.038085        -0.066329         0.962011
 C         0.123934        -0.115486        -0.206678
 C         1.878730        -1.358281         1.362374
 C         2.731564        -0.345077         2.062796
 O         4.025529        -0.670364         2.531524
 H         3.834146         2.414352         0.625978
 H         3.543483         1.450684        -0.795046
 H         2.353967         2.543208        -0.182454
 H         1.923185         1.471351         3.317108
 H        -0.770384        -0.780970        -0.028952
 H        -0.349212         0.878075        -0.282405
 H         0.667564        -0.407320        -1.094760
 H         1.511444        -2.154169         2.185937
 H         2.400120        -1.816985         0.505436
 H         3.937400        -1.199945         3.362874
