19
Iteration:  3895charge 0 multiplicity 1
 C         3.304735         1.573519         0.272239
 C         2.286090         0.783886         1.053056
 C         1.754153         0.858974         2.507311
 O         0.477248         0.421035         2.228819
 C         0.985697        -0.124303         0.891961
 C        -0.080034        -0.086128        -0.129815
 C         1.903376        -1.324452         1.359775
 C         2.728587        -0.289808         2.070777
 O         4.080000        -0.583718         2.429357
 H         3.025251         1.635758        -0.822714
 H         3.470133         2.567524         0.710663
 H         4.215790         1.038113         0.173583
 H         2.104937         1.484097         3.374944
 H        -0.761690        -0.886308         0.256553
 H        -0.562133         0.952061        -0.400797
 H         0.380617        -0.423872        -1.144819
 H         1.413520        -2.090743         1.896117
 H         2.516774        -1.579748         0.454637
 H         4.052772        -0.860651         3.374152
