19
Iteration:  3301charge 0 multiplicity 1
 C         3.279421         1.586771         0.240604
 C         2.299223         0.755421         1.145322
 C         1.748734         0.723705         2.568326
 O         0.422402         0.392847         2.273769
 C         0.962532        -0.108546         0.919964
 C         0.147039        -0.164947        -0.225851
 C         1.912731        -1.368449         1.243829
 C         2.687975        -0.322669         2.035455
 O         4.006944        -0.296918         2.507652
 H         4.233363         1.326231         0.681284
 H         3.252436         1.128880        -0.804613
 H         2.971352         2.676427         0.021676
 H         1.855180         1.403309         3.511020
 H        -0.961708        -0.418867         0.104190
 H         0.080654         0.901117        -0.780060
 H         0.541143        -1.024384        -0.877464
 H         1.345809        -2.286204         1.623654
 H         2.569216        -1.538141         0.388315
 H         4.151167        -0.976724         3.211690
