19
Iteration:  2530charge 0 multiplicity 1
 C         2.929383         1.822478         0.249745
 C         2.368279         0.783992         1.152210
 C         1.862545         0.818012         2.501146
 O         0.514669         0.440463         2.099094
 C         1.113159        -0.121775         0.875475
 C         0.096999        -0.111576        -0.287051
 C         1.888107        -1.423025         1.417347
 C         2.790733        -0.355574         2.080539
 O         4.043996        -0.634692         2.600527
 H         3.913989         2.126752         0.646463
 H         2.979489         1.601492        -0.871922
 H         2.158634         2.629498         0.291599
 H         2.093093         1.385222         3.437506
 H        -0.655262        -0.927182         0.016193
 H        -0.425455         0.871344        -0.282903
 H         0.526571        -0.369191        -1.318785
 H         1.233265        -2.001965         2.002684
 H         2.230217        -1.816673         0.543660
 H         3.793707        -1.410715         3.177662
