19
Iteration:  1405
 C         2.962753         1.862080         0.382919
 C         2.290833         0.747416         1.204280
 C         1.803699         0.632961         2.602344
 O         0.437534         0.451335         2.097858
 C         1.026509        -0.147691         0.848401
 C         0.123942        -0.169157        -0.250820
 C         1.930340        -1.384856         1.261210
 C         2.828354        -0.374617         2.040338
 O         4.092520        -0.520722         2.514184
 H         3.944677         2.153702         0.885751
 H         3.327109         1.565025        -0.715568
 H         2.375512         2.718650         0.279285
 H         1.923663         1.266803         3.434296
 H        -0.850087        -0.643062         0.064268
 H         0.030835         0.899302        -0.428117
 H         0.520787        -0.702779        -1.130818
 H         1.373856        -2.202690         1.627673
 H         2.518607        -1.665673         0.333555
 H         4.123798        -0.346276         3.499210
