19
Iteration:  4438charge 0 multiplicity 1
 C         2.920424         1.816251         0.192498
 C         2.433618         0.701604         1.093940
 C         1.874793         0.797721         2.480456
 O         0.504085         0.543529         2.147745
 C         0.981667        -0.051592         0.962366
 C         0.031329        -0.095086        -0.260355
 C         1.867552        -1.324048         1.520034
 C         2.911056        -0.385884         2.010279
 O         4.084062        -0.801310         2.539199
 H         3.599585         1.330714        -0.514327
 H         2.141678         2.295555        -0.401747
 H         3.474447         2.657704         0.765302
 H         2.107713         1.510093         3.269731
 H        -0.900816        -0.700905        -0.131206
 H        -0.334493         0.938917        -0.373826
 H         0.542059        -0.350428        -1.154236
 H         1.225384        -1.925444         2.304428
 H         2.042746        -1.969332         0.593765
 H         3.824737        -1.242802         3.368679
