19
Iteration:   175charge 0 multiplicity 1
 C         2.943121         2.015101         0.473883
 C         2.268130         0.893639         1.232821
 C         1.707821         0.494131         2.633305
 O         0.371370         0.061743         2.203661
 C         1.071143        -0.060622         0.865808
 C         0.072043         0.105268        -0.312744
 C         2.072839        -1.317654         1.116339
 C         2.855176        -0.371669         1.959537
 O         4.103977        -0.660860         2.606035
 H         3.888064         2.320986         0.978090
 H         3.242715         1.613636        -0.589000
 H         2.247708         2.825657         0.329843
 H         1.808914         1.043911         3.592922
 H        -0.934346        -0.276024        -0.087801
 H        -0.064729         1.140935        -0.624606
 H         0.452432        -0.399990        -1.218477
 H         1.789293        -2.258854         1.535085
 H         2.648920        -1.333115         0.173414
 H         4.794065        -0.280561         2.049273
