19
Iteration:  2537
 C         2.899863         1.872689         0.191069
 C         2.329996         0.755290         1.069315
 C         1.850194         0.792098         2.525296
 O         0.490166         0.430939         2.146929
 C         1.109243        -0.097935         0.870077
 C         0.160391        -0.062466        -0.265603
 C         1.858674        -1.433891         1.384289
 C         2.806202        -0.342464         2.092480
 O         4.078043        -0.685605         2.642105
 H         3.954721         2.255847         0.563148
 H         2.925611         1.405940        -0.845739
 H         2.165876         2.654022         0.253447
 H         1.837346         1.496401         3.322871
 H        -0.530844        -0.796430         0.052976
 H        -0.438513         0.820650        -0.414176
 H         0.600408        -0.392194        -1.201911
 H         1.257374        -1.940212         2.182814
 H         2.416490        -1.915660         0.467250
 H         3.921084        -1.383973         3.301763
