19
Iteration:  2601
 C         2.997036         1.757839         0.180351
 C         2.368244         0.734172         1.132594
 C         1.807812         0.742565         2.551642
 O         0.459241         0.367919         2.173812
 C         1.000624        -0.120877         0.943748
 C         0.143205        -0.008743        -0.279239
 C         1.816367        -1.379873         1.285480
 C         2.799372        -0.375941         2.075997
 O         4.113611        -0.609300         2.614947
 H         3.845976         2.365520         0.553499
 H         3.302526         1.424072        -0.756615
 H         2.180059         2.341401        -0.232347
 H         1.969263         1.239512         3.459664
 H        -0.770702        -0.475534         0.074360
 H        -0.035410         1.068676        -0.404185
 H         0.551421        -0.470365        -1.166437
 H         1.326119        -2.127835         2.036357
 H         2.438893        -1.549795         0.314473
 H         4.203682        -0.223242         3.526241
