19
Iteration:  3808charge 0 multiplicity 1
 C         2.950979         1.791348         0.112613
 C         2.309637         0.678866         1.072177
 C         1.858823         0.857886         2.458958
 O         0.468618         0.482092         2.166987
 C         1.067052        -0.122566         0.907516
 C         0.108714        -0.024461        -0.254511
 C         1.856318        -1.398320         1.557012
 C         2.817052        -0.377423         2.091142
 O         4.123352        -0.724970         2.591820
 H         2.062313         2.360676        -0.320921
 H         3.452984         2.509998         0.768650
 H         3.576171         1.493017        -0.669053
 H         2.257769         1.741838         3.064713
 H        -0.847504        -0.617689        -0.173168
 H        -0.200995         1.119166        -0.358719
 H         0.595904        -0.370095        -1.264230
 H         1.245336        -2.005169         2.143949
 H         2.236027        -2.003442         0.675742
 H         3.902382        -1.281683         3.366041
