19
Iteration:  3020charge 0 multiplicity 1
 C         3.019684         1.804462         0.259497
 C         2.421560         0.724150         1.103630
 C         1.884434         0.856553         2.523474
 O         0.487810         0.471033         2.156066
 C         1.029645        -0.074540         0.913279
 C         0.064991        -0.225768        -0.282729
 C         1.795491        -1.372587         1.337052
 C         2.770149        -0.415372         2.085900
 O         4.066301        -0.584100         2.566464
 H         3.710815         2.327321         0.984782
 H         3.617243         1.507173        -0.483186
 H         2.373227         2.434585        -0.233022
 H         2.003753         1.563871         3.438389
 H        -0.610942        -1.113751        -0.228083
 H        -0.623398         0.681024        -0.383038
 H         0.786793        -0.301577        -1.069634
 H         1.207287        -2.082814         1.952035
 H         2.207379        -1.876956         0.415619
 H         4.002089        -0.960710         3.472246
