19
Iteration:  1642charge 0 multiplicity 1
 C         3.097872         1.819109         0.278260
 C         2.320894         0.766860         1.110546
 C         1.789241         0.772964         2.469921
 O         0.409101         0.328540         2.235355
 C         1.074138        -0.205663         0.843682
 C         0.081638        -0.152368        -0.247393
 C         1.865281        -1.334873         1.324663
 C         2.853048        -0.299591         2.067547
 O         4.060166        -0.506380         2.568681
 H         3.919748         2.250200         0.965382
 H         3.558197         1.495674        -0.616739
 H         2.416972         2.714043        -0.102259
 H         1.944407         1.542157         3.200605
 H        -0.863846        -0.461303         0.248918
 H         0.096269         0.868099        -0.557591
 H         0.190618        -0.875020        -1.055128
 H         1.375308        -2.128581         1.907536
 H         2.375003        -1.832625         0.451535
 H         3.862485        -1.194965         3.236774
