19
Iteration:  1375
 C         2.990647         1.918532         0.336543
 C         2.349572         0.836357         1.102347
 C         1.789747         0.769646         2.532923
 O         0.484674         0.250256         2.253660
 C         0.992039        -0.123025         0.876026
 C         0.191132        -0.124040        -0.352474
 C         1.842957        -1.371670         1.370051
 C         2.787176        -0.415016         1.992732
 O         4.031789        -0.601533         2.577641
 H         3.864484         2.252091         0.849131
 H         3.413294         1.676668        -0.663781
 H         2.280084         2.726615         0.347101
 H         1.981001         1.126753         3.510919
 H        -0.434423        -0.971224        -0.390658
 H        -0.371234         0.806786        -0.376795
 H         0.877627        -0.187401        -1.229165
 H         1.160787        -2.033938         1.910501
 H         2.312332        -1.901434         0.570923
 H         4.696506         0.154111         2.587930
