19
Iteration:  2291charge 0 multiplicity 1
 C         3.164517         1.846832         0.347433
 C         2.282739         0.782045         1.058897
 C         1.850471         0.837029         2.442291
 O         0.443360         0.335429         2.163368
 C         1.032831        -0.135149         0.856069
 C         0.040462        -0.212675        -0.210781
 C         1.939157        -1.357106         1.328323
 C         2.757128        -0.325475         2.062879
 O         4.013220        -0.606325         2.577073
 H         3.867173         2.035113         1.095717
 H         3.540910         1.443243        -0.572970
 H         2.670057         2.918193         0.059852
 H         1.798397         1.381458         3.419504
 H        -0.733074        -0.851499         0.117635
 H        -0.326183         0.727537        -0.439268
 H         0.448475        -0.696556        -1.067769
 H         1.293853        -2.086164         1.833172
 H         2.316514        -1.866873         0.531243
 H         4.376871         0.027404         3.259963
