19
Iteration:  4703charge 0 multiplicity 1
 C         3.238364         1.548311         0.190578
 C         2.253498         0.823720         1.160347
 C         1.699332         0.750662         2.559893
 O         0.418559         0.345655         2.235523
 C         1.034305        -0.120750         0.949518
 C         0.131466        -0.068569        -0.211756
 C         1.930699        -1.297903         1.401534
 C         2.751649        -0.312451         2.004149
 O         4.007762        -0.477512         2.411066
 H         3.156972         2.697545        -0.084281
 H         4.402638         1.493017         0.356536
 H         3.012611         1.228762        -0.830284
 H         1.871964         1.369817         3.430533
 H        -0.727576        -0.737791         0.178013
 H        -0.199465         0.913082        -0.301496
 H         0.679262        -0.544130        -1.103319
 H         1.559884        -2.045488         2.214627
 H         2.300800        -1.786886         0.469323
 H         4.009781        -0.422778         3.381541
