19
Iteration:  3014charge 0 multiplicity 1
 C         2.987009         1.804925         0.251158
 C         2.391488         0.712578         1.099860
 C         1.846464         0.827678         2.537805
 O         0.512842         0.473605         2.135395
 C         1.035933        -0.119595         0.929868
 C         0.105437        -0.153362        -0.259932
 C         1.822446        -1.404274         1.349303
 C         2.768971        -0.351419         2.087959
 O         4.039933        -0.613114         2.568729
 H         3.630355         2.411060         0.876214
 H         3.777702         1.435674        -0.594004
 H         2.172976         2.558259        -0.130063
 H         2.251395         1.653893         3.135821
 H        -0.464277        -1.075435        -0.151461
 H        -0.520121         0.691502        -0.380482
 H         0.719007        -0.316684        -1.195964
 H         1.139324        -2.058300         1.936529
 H         2.256217        -1.965627         0.540594
 H         4.068968        -0.970381         3.454732
