19
Iteration:   427charge 0 multiplicity 1
 C         3.085803         2.135481         0.620966
 C         2.301323         0.915445         1.204176
 C         1.760710         0.741971         2.515890
 O         0.359766         0.292497         2.149333
 C         1.023181        -0.126449         0.839141
 C         0.088981        -0.180163        -0.324262
 C         1.938085        -1.390854         1.303317
 C         2.828567        -0.396368         1.997810
 O         4.097559        -0.741890         2.446550
 H         3.762641         2.472579         1.375414
 H         3.649817         1.934006        -0.377844
 H         2.356014         2.824272         0.533298
 H         1.799772         1.320540         3.404155
 H        -0.507299        -1.142703        -0.266437
 H        -0.460063         0.741963        -0.383762
 H         0.642128        -0.320972        -1.209746
 H         1.407968        -2.057049         2.020253
 H         2.436837        -1.991954         0.485833
 H         4.637817        -1.056122         1.710190
