19
Iteration:  2158charge 0 multiplicity 1
 C         2.871425         1.900244         0.202232
 C         2.331133         0.804984         1.146300
 C         1.821337         0.757611         2.527375
 O         0.462988         0.464075         2.197309
 C         1.099143        -0.173110         0.904198
 C         0.252983        -0.191164        -0.337609
 C         1.862128        -1.356746         1.407615
 C         2.745741        -0.378077         2.091878
 O         4.074978        -0.679341         2.566064
 H         3.833073         2.289220         0.594723
 H         3.071238         1.575413        -0.799613
 H         2.011996         2.706910         0.054343
 H         2.180801         1.604450         3.203420
 H        -0.280452        -1.096344        -0.509739
 H        -0.299987         0.737029        -0.316483
 H         0.925360        -0.244228        -1.195139
 H         1.250208        -2.012785         2.028765
 H         2.164507        -1.971760         0.575118
 H         4.098359        -0.584010         3.559905
