19
Iteration:  4099charge 0 multiplicity 1
 C         3.293375         1.635677         0.317965
 C         2.340444         0.793640         1.122104
 C         1.865106         0.847057         2.524269
 O         0.538562         0.490883         2.263697
 C         0.941345        -0.043930         0.897751
 C         0.039945        -0.138538        -0.130509
 C         1.727835        -1.337185         1.417024
 C         2.660358        -0.423933         2.059375
 O         4.029255        -0.598530         2.242687
 H         4.318395         1.356443         0.562282
 H         2.995116         1.424255        -0.713209
 H         3.331597         2.793222         0.446234
 H         2.222425         1.567403         3.227960
 H        -0.571360        -1.116294         0.230403
 H        -0.711354         0.738198        -0.301836
 H         0.451970        -0.431313        -1.156236
 H         1.327471        -2.187310         2.057511
 H         2.401262        -1.644246         0.558377
 H         4.091837        -0.835910         3.193541
