19
Iteration:  2297charge 0 multiplicity 1
 C         3.099272         1.908761         0.323618
 C         2.255896         0.830688         1.027575
 C         1.847903         0.809212         2.436901
 O         0.496458         0.327963         2.155346
 C         0.984919        -0.061839         0.871092
 C         0.077287        -0.234138        -0.216366
 C         1.909542        -1.400167         1.358347
 C         2.771663        -0.369697         2.097227
 O         4.009723        -0.630540         2.585417
 H         4.003896         1.971861         1.055070
 H         3.648354         1.473838        -0.556181
 H         2.805131         2.896207         0.079144
 H         2.000673         1.392211         3.339348
 H        -0.740927        -0.983494         0.067084
 H        -0.317021         0.825358        -0.516356
 H         0.591857        -0.676353        -1.134197
 H         1.253707        -2.016906         2.060992
 H         2.460528        -1.994995         0.477046
 H         4.199187         0.083150         3.201714
