19
Iteration:  3170
 C         2.861234         1.815379         0.115995
 C         2.337751         0.803934         1.070510
 C         1.779918         0.872071         2.518299
 O         0.445493         0.460566         2.165862
 C         1.111124        -0.137209         0.924488
 C         0.240703        -0.078904        -0.246241
 C         1.906993        -1.397408         1.434950
 C         2.824533        -0.339129         2.080205
 O         4.008011        -0.766602         2.613760
 H         3.692999         2.455093         0.367139
 H         3.221457         1.203250        -0.767567
 H         2.078459         2.580455        -0.071549
 H         2.016738         1.495273         3.351136
 H        -0.378689        -0.930746         0.010290
 H        -0.212396         0.902972        -0.447185
 H         0.808849        -0.290408        -1.139951
 H         1.620396        -2.222324         2.035206
 H         2.405518        -1.776655         0.580509
 H         4.108657        -1.057425         3.541063
