19
Iteration:  4338
 C         3.281362         1.571826         0.194911
 C         2.396876         0.800154         1.154410
 C         1.829848         0.870568         2.558208
 O         0.494910         0.406105         2.215003
 C         0.998148        -0.090877         0.937413
 C         0.005534        -0.068568        -0.041701
 C         1.839072        -1.337502         1.290675
 C         2.675633        -0.359109         2.016545
 O         3.964221        -0.565783         2.350079
 H         4.251585         1.117078         0.303912
 H         3.020234         1.546370        -0.813484
 H         3.603972         2.624922         0.609589
 H         1.793168         1.440763         3.490432
 H        -0.637466        -0.842836         0.333882
 H        -0.482373         0.938757        -0.113424
 H         0.228266        -0.353868        -1.025578
 H         1.429272        -2.249895         1.915047
 H         2.302840        -1.740903         0.347243
 H         4.189562        -0.629954         3.287703
