19
Iteration:  3060
 C         3.316291         1.692984         0.344807
 C         2.292929         0.859870         1.100812
 C         1.775853         0.847981         2.519776
 O         0.466830         0.351300         2.139524
 C         1.036524        -0.051600         0.902841
 C         0.011903        -0.261425        -0.128066
 C         1.875633        -1.328229         1.340655
 C         2.717393        -0.331292         1.973653
 O         3.990670        -0.505148         2.457307
 H         4.115948         1.984452         1.052703
 H         3.880525         0.928634        -0.464264
 H         2.863373         2.728743         0.083117
 H         1.803369         1.335140         3.413211
 H        -0.660765        -1.086310         0.092439
 H        -0.491291         0.703009        -0.304879
 H         0.390086        -0.507228        -1.136657
 H         1.337081        -2.183543         1.887742
 H         2.494826        -1.785351         0.512660
 H         3.991154        -0.857707         3.362386
