19
Iteration:  1657
 C         3.042921         1.788669         0.320468
 C         2.405465         0.775697         1.132369
 C         1.743391         0.737538         2.545807
 O         0.431514         0.438273         2.095475
 C         1.025970        -0.098751         0.922579
 C         0.040289        -0.166424        -0.240910
 C         1.923526        -1.410600         1.355509
 C         2.752224        -0.400185         1.956308
 O         4.141585        -0.446193         2.600244
 H         3.788614         2.371681         0.848793
 H         3.555708         1.278765        -0.586587
 H         2.270084         2.486382         0.039082
 H         1.998037         1.052888         3.651576
 H        -0.950056        -0.398563         0.128398
 H        -0.127325         0.788685        -0.825092
 H         0.436550        -0.870637        -1.020493
 H         1.365006        -2.141446         1.961965
 H         2.379545        -1.935295         0.447557
 H         4.278313        -1.277808         3.026513
