19
Iteration:  4186
 C         2.995259         1.693456         0.109631
 C         2.349192         0.733453         1.080460
 C         1.900298         0.799428         2.496932
 O         0.533757         0.434829         2.261721
 C         1.027838        -0.094744         0.916027
 C        -0.023103         0.149751        -0.098901
 C         1.795118        -1.379284         1.344108
 C         2.808116        -0.506276         1.955644
 O         4.142332        -0.709889         2.593406
 H         3.448698         2.555853         0.629528
 H         3.886797         1.363860        -0.442086
 H         2.138045         2.008615        -0.669903
 H         2.261392         1.573556         3.162314
 H        -1.195751        -0.181968         0.090182
 H        -0.101092         1.339605        -0.343942
 H         0.240434        -0.377119        -1.106149
 H         1.306635        -2.108290         1.956542
 H         2.489962        -1.771312         0.590727
 H         3.850550        -0.831600         3.517089
