19
Iteration:  4963
 C         3.172281         1.656078         0.235000
 C         2.268666         0.802313         1.113719
 C         1.750713         0.828732         2.417864
 O         0.365492         0.412578         2.118638
 C         1.008622        -0.178538         0.937378
 C         0.090617        -0.181737        -0.266824
 C         2.022484        -1.397141         1.500687
 C         2.779784        -0.299607         1.968184
 O         4.054653        -0.448319         2.590665
 H         2.809546         1.683990        -0.827232
 H         3.152591         2.669553         0.551056
 H         4.190612         1.268363         0.323813
 H         1.879761         1.356798         3.377871
 H        -0.758082        -0.772149         0.111291
 H        -0.184279         0.758624        -0.344946
 H         0.509619        -0.738769        -1.136062
 H         1.526833        -2.066907         2.275138
 H         2.586534        -1.997334         0.614936
 H         3.810030        -0.415465         3.536461
