19
Iteration:   870
 C         3.012089         2.066447         0.502324
 C         2.257732         0.953295         1.185180
 C         1.794994         0.491772         2.611110
 O         0.427351         0.092652         2.282507
 C         1.084072        -0.119312         0.832556
 C         0.127661        -0.047463        -0.370124
 C         2.001264        -1.346895         1.141204
 C         2.802303        -0.368638         1.974565
 O         3.983202        -0.508721         2.595207
 H         3.938744         2.414097         1.023083
 H         3.313892         1.634375        -0.453379
 H         2.369253         2.866687         0.097049
 H         2.023234         1.144148         3.507512
 H        -0.877277        -0.659725        -0.331035
 H        -0.016126         1.049947        -0.461482
 H         0.639902        -0.216597        -1.332331
 H         1.454487        -2.200228         1.594820
 H         2.606193        -1.676796         0.196131
 H         4.378645        -1.327890         2.316558
