19
Iteration:  1971charge 0 multiplicity 1
 C         3.002308         1.856815         0.193323
 C         2.328384         0.792944         1.076643
 C         1.804002         0.792193         2.517356
 O         0.462348         0.312624         2.257773
 C         1.052719        -0.167410         0.916371
 C         0.197905        -0.114506        -0.309881
 C         1.783573        -1.379236         1.335715
 C         2.750792        -0.302299         2.012370
 O         4.121016        -0.569029         2.627568
 H         3.884322         2.209659         0.832302
 H         3.260271         1.699786        -0.781364
 H         2.184965         2.691347         0.112628
 H         1.986367         1.241042         3.395054
 H        -0.229795        -1.077346        -0.570370
 H        -0.559175         0.702168        -0.342655
 H         0.909014        -0.088806        -1.147029
 H         1.310371        -2.067095         2.006248
 H         2.248898        -2.084912         0.598605
 H         4.004357        -0.936431         3.540142
