19
Iteration:  3820charge 0 multiplicity 1
 C         2.891231         1.734104         0.130429
 C         2.406535         0.713940         1.002728
 C         1.874369         0.859836         2.450941
 O         0.484502         0.484972         2.195031
 C         1.004406        -0.167594         0.943539
 C         0.067843         0.028388        -0.287354
 C         1.823363        -1.416209         1.488987
 C         2.868294        -0.405751         2.088984
 O         4.113816        -0.680520         2.626940
 H         2.194870         2.266253        -0.617281
 H         3.324695         2.481970         0.811538
 H         3.690936         1.387850        -0.389182
 H         1.828984         1.622080         3.352665
 H        -0.892911        -0.412876        -0.080729
 H        -0.037259         1.178846        -0.436462
 H         0.595164        -0.387527        -1.271108
 H         1.348837        -1.989701         2.243833
 H         2.427074        -1.990296         0.729257
 H         4.086913        -1.262782         3.397049
