19
Iteration:  3897charge 0 multiplicity 1
 C         3.328027         1.575460         0.284957
 C         2.274142         0.784072         1.050239
 C         1.758273         0.870416         2.486049
 O         0.477152         0.421709         2.227647
 C         1.019271        -0.126821         0.887562
 C        -0.079061        -0.086698        -0.104448
 C         1.895388        -1.322257         1.378821
 C         2.712621        -0.302059         2.054801
 O         4.071767        -0.576904         2.423447
 H         2.959938         1.645425        -0.775051
 H         3.454362         2.592647         0.672240
 H         4.205542         1.088893         0.178194
 H         2.037784         1.439798         3.405221
 H        -0.791074        -0.898856         0.180463
 H        -0.561428         0.911425        -0.355936
 H         0.405998        -0.437104        -1.139519
 H         1.393072        -2.140691         1.810298
 H         2.466873        -1.594048         0.514995
 H         4.106603        -0.895193         3.342804
