19
Iteration:  4958charge 0 multiplicity 1
 C         3.190678         1.614269         0.188789
 C         2.261202         0.856911         1.084329
 C         1.742842         0.821067         2.459654
 O         0.359980         0.389685         2.165884
 C         1.061060        -0.191508         0.929221
 C         0.136646        -0.202696        -0.264321
 C         1.960767        -1.419054         1.446697
 C         2.753570        -0.256184         2.044257
 O         4.062160        -0.428223         2.571759
 H         2.892900         1.647353        -0.844919
 H         3.060543         2.700585         0.487458
 H         4.249832         1.278709         0.399535
 H         1.882212         1.235310         3.449341
 H        -0.820740        -0.645431         0.070317
 H        -0.248347         0.927628        -0.534171
 H         0.400096        -0.667951        -1.204992
 H         1.607254        -2.177678         2.144017
 H         2.462471        -1.998283         0.751130
 H         3.843226        -0.422209         3.521882
