19
Iteration:  2525charge 0 multiplicity 1
 C         2.932787         1.791910         0.291166
 C         2.428187         0.794664         1.178257
 C         1.850300         0.825836         2.503118
 O         0.522156         0.447418         2.079379
 C         1.105770        -0.135169         0.887518
 C         0.051848        -0.162363        -0.284925
 C         1.887338        -1.356513         1.441239
 C         2.776167        -0.379382         2.046856
 O         4.013855        -0.599796         2.576869
 H         3.970197         2.148859         0.677617
 H         3.085216         1.631434        -0.798013
 H         2.305519         2.690192         0.314703
 H         2.245904         1.295644         3.382321
 H        -0.695947        -0.903373        -0.137464
 H        -0.347441         0.846931        -0.219416
 H         0.454211        -0.314160        -1.261944
 H         1.236156        -2.216864         1.871734
 H         2.286728        -1.970692         0.500559
 H         3.867596        -1.383914         3.120921
