19
Iteration:  3177charge 0 multiplicity 1
 C         2.857773         1.880425         0.071630
 C         2.395733         0.756052         1.142317
 C         1.805348         0.883349         2.484152
 O         0.457181         0.455349         2.135342
 C         1.115698        -0.084020         0.980604
 C         0.225490        -0.118411        -0.215997
 C         1.911857        -1.373404         1.405854
 C         2.784870        -0.388414         2.086079
 O         4.014338        -0.759509         2.608688
 H         3.679202         2.404835         0.555880
 H         3.271893         1.359976        -0.791967
 H         1.965775         2.545498        -0.308086
 H         1.958526         1.434404         3.389880
 H        -0.565271        -1.001039        -0.249183
 H        -0.342023         0.825034        -0.270152
 H         0.860953        -0.364571        -1.192830
 H         1.356701        -2.163888         2.026456
 H         2.545064        -1.889539         0.619952
 H         3.933945        -1.021677         3.571640
