19
Iteration:    58charge 0 multiplicity 1
 C         3.051506         2.300680         0.623330
 C         2.244377         1.022200         1.127471
 C         1.795938         0.670591         2.500934
 O         0.521831         0.124642         2.186812
 C         1.017294        -0.061432         0.862672
 C        -0.047790        -0.198963        -0.298195
 C         2.085170        -1.364769         1.105711
 C         2.854288        -0.371759         1.917655
 O         3.969259        -0.885053         2.592933
 H         3.774031         2.481971         1.377852
 H         3.587158         2.036266        -0.195997
 H         2.443364         3.288208         0.393581
 H         1.905613         1.109950         3.477650
 H        -0.224767        -1.317850        -0.498247
 H        -1.017199         0.222434        -0.068612
 H         0.345879         0.329458        -1.127742
 H         1.445791        -2.159458         1.638994
 H         2.635693        -1.715738         0.258647
 H         4.602317        -0.158622         2.899622
