19
Iteration:   908
 C         2.879371         1.920593         0.457717
 C         2.289807         0.801297         1.339455
 C         1.643365         0.573402         2.615400
 O         0.343383         0.219480         2.156290
 C         1.138436        -0.183873         0.819860
 C         0.233838         0.085429        -0.290073
 C         2.015337        -1.363527         1.099031
 C         2.787942        -0.441453         2.057540
 O         4.137671        -0.550546         2.562261
 H         3.701332         2.512887         0.863677
 H         3.258290         1.311893        -0.393307
 H         2.171213         2.755406         0.142033
 H         1.881595         1.363024         3.397184
 H        -0.455331        -0.723639        -0.350154
 H        -0.342437         0.969211        -0.001999
 H         0.782510         0.244291        -1.250633
 H         1.469581        -2.234193         1.538141
 H         2.593725        -1.540168         0.227994
 H         4.747882        -0.151824         1.863712
