19
Iteration:  1750
 C         3.017866         1.788731         0.198084
 C         2.358673         0.763531         1.163626
 C         1.833209         0.744938         2.558894
 O         0.474857         0.350226         2.105030
 C         1.059970        -0.086862         0.931389
 C         0.076784        -0.097355        -0.226812
 C         1.889142        -1.351459         1.277716
 C         2.822056        -0.400931         2.087675
 O         4.020152        -0.598851         2.680925
 H         3.973207         2.332721         0.470700
 H         3.180483         1.292276        -0.688695
 H         2.270254         2.633574         0.043577
 H         1.882985         1.547363         3.368751
 H        -0.354296        -1.162463        -0.164024
 H        -0.786738         0.548415        -0.302902
 H         0.597838         0.048665        -1.199236
 H         1.350949        -2.235749         1.728698
 H         2.389152        -1.816531         0.349759
 H         4.253623         0.382666         2.651297
