19
Iteration:  4705
 C         3.246283         1.542288         0.180965
 C         2.247651         0.821958         1.147378
 C         1.701526         0.742909         2.576827
 O         0.417134         0.329776         2.241644
 C         1.027039        -0.102987         0.920262
 C         0.139761        -0.066527        -0.209816
 C         1.928185        -1.296578         1.404669
 C         2.734784        -0.320478         2.011299
 O         4.023012        -0.464913         2.414649
 H         3.150844         2.682229        -0.025661
 H         4.394512         1.444825         0.342047
 H         2.983328         1.255056        -0.800623
 H         1.867541         1.419252         3.412490
 H        -0.694131        -0.660397         0.148510
 H        -0.202035         0.898764        -0.314073
 H         0.627631        -0.552604        -1.081422
 H         1.538883        -2.022484         2.274164
 H         2.276713        -1.775129         0.482373
 H         4.071969        -0.443269         3.389573
