19
Iteration:  1872
 C         3.074962         1.876424         0.346651
 C         2.340286         0.806009         1.102536
 C         1.843058         0.688299         2.519278
 O         0.439082         0.312065         2.198172
 C         0.984760        -0.093965         0.891851
 C         0.117450        -0.160862        -0.254509
 C         1.906292        -1.377563         1.301944
 C         2.771700        -0.370619         2.018685
 O         4.046949        -0.558670         2.577902
 H         3.839812         2.577407         0.775752
 H         3.426707         1.435708        -0.521110
 H         2.209191         2.561077        -0.000585
 H         1.952337         1.395604         3.353008
 H        -0.919735        -0.373218         0.073062
 H         0.168851         0.752992        -0.919617
 H         0.509566        -0.998781        -0.903698
 H         1.307574        -2.165258         1.802232
 H         2.331225        -1.904070         0.387796
 H         4.303113         0.172435         3.132171
