19
Iteration:  3870charge 0 multiplicity 1
 C         3.202987         1.584419         0.177297
 C         2.333697         0.849902         1.125827
 C         1.851862         0.793353         2.563823
 O         0.479007         0.401705         2.236243
 C         0.997300        -0.073062         0.936276
 C        -0.042790        -0.085120        -0.199763
 C         1.833186        -1.328755         1.316002
 C         2.793478        -0.400545         2.006054
 O         4.073408        -0.546795         2.554107
 H         2.559826         1.550216        -0.701804
 H         3.424783         2.632530         0.429366
 H         4.118405         1.034596        -0.299008
 H         2.069603         1.353938         3.469473
 H        -1.004703        -0.588643         0.076141
 H        -0.130364         0.913450        -0.655956
 H         0.421340        -0.563229        -1.013786
 H         1.178322        -2.112684         1.834059
 H         2.274223        -1.532300         0.299882
 H         3.983156        -0.517276         3.524992
