19
Iteration:  3082charge 0 multiplicity 1
 C         3.322346         1.662218         0.362737
 C         2.332688         0.745105         1.092984
 C         1.755368         0.858297         2.502375
 O         0.386831         0.324816         2.198792
 C         1.026905        -0.198436         0.832605
 C        -0.106551        -0.132935        -0.202857
 C         1.916505        -1.337130         1.290589
 C         2.748491        -0.273308         2.136517
 O         4.095654        -0.442682         2.466442
 H         4.247229         1.685356         0.963039
 H         3.666583         0.982196        -0.548488
 H         3.009334         2.744789         0.253449
 H         1.772374         1.687815         3.079497
 H        -0.940875        -0.784233         0.010805
 H        -0.340785         0.903699        -0.429377
 H         0.210288        -0.507775        -1.181661
 H         1.440135        -2.154445         1.891351
 H         2.511063        -1.790789         0.478700
 H         4.119066        -0.832997         3.366387
