19
Iteration:  1980
 C         2.935286         1.814846         0.276323
 C         2.354242         0.818985         1.126653
 C         1.770874         0.872715         2.490665
 O         0.486366         0.303993         2.226914
 C         1.054921        -0.174386         0.875663
 C         0.166635        -0.068332        -0.323372
 C         1.875331        -1.450515         1.399310
 C         2.790799        -0.333485         2.067397
 O         4.067462        -0.557694         2.542987
 H         3.949840         2.079652         0.729762
 H         3.300114         1.380921        -0.688825
 H         2.351172         2.766763         0.097530
 H         1.859314         1.551083         3.326602
 H        -0.284798        -1.061791        -0.472601
 H        -0.588864         0.693556        -0.451405
 H         0.935552         0.031050        -1.115223
 H         1.320971        -1.984937         2.133191
 H         2.438513        -2.018778         0.632578
 H         3.848105        -1.206842         3.249794
