19
Iteration:  4417charge 0 multiplicity 1
 C         2.888815         1.797521         0.115242
 C         2.403709         0.709717         1.077307
 C         1.938937         0.808986         2.491471
 O         0.549316         0.493788         2.195553
 C         1.051281        -0.125461         0.852004
 C         0.084736         0.046868        -0.252774
 C         1.731753        -1.424809         1.486509
 C         2.750759        -0.422108         2.088344
 O         4.163185        -0.696342         2.600150
 H         3.765307         1.516347        -0.502450
 H         2.017699         2.060427        -0.547786
 H         2.978072         2.684906         0.799873
 H         2.310805         1.516134         3.232828
 H        -0.916469        -0.365106         0.163697
 H        -0.086439         1.119171        -0.417056
 H         0.497026        -0.535510        -1.100837
 H         0.959253        -2.028485         2.114426
 H         2.208152        -2.082405         0.675837
 H         4.046804        -1.404755         3.263170
