19
Iteration:  4583
 C         3.047264         1.677547         0.116489
 C         2.358239         0.819585         1.130777
 C         1.854638         0.785754         2.560699
 O         0.442349         0.465259         2.248326
 C         1.049915        -0.049082         0.993024
 C         0.202484        -0.106612        -0.243760
 C         1.847535        -1.385773         1.361549
 C         2.707626        -0.383512         2.061125
 O         4.058406        -0.611418         2.488351
 H         2.307309         1.688967        -0.752922
 H         3.108401         2.754676         0.516892
 H         4.015890         1.494100        -0.233798
 H         2.048746         1.261345         3.527308
 H        -0.792049        -0.506262         0.098554
 H        -0.145374         0.771909        -0.671846
 H         0.530676        -0.828366        -1.020521
 H         1.065485        -2.125821         1.817942
 H         2.234735        -1.871161         0.426289
 H         4.173237        -0.662901         3.459361
