19
Iteration:  2637charge 0 multiplicity 1
 C         3.218091         1.722673         0.356259
 C         2.316135         0.792094         1.051342
 C         1.797440         0.762595         2.501141
 O         0.499445         0.324540         2.174101
 C         1.017192        -0.129040         0.863920
 C         0.017630        -0.131522        -0.181813
 C         1.891086        -1.315554         1.358505
 C         2.701311        -0.272942         2.005175
 O         4.011415        -0.511877         2.475066
 H         3.955994         2.026828         1.145620
 H         3.819702         1.145847        -0.356614
 H         2.801942         2.564848         0.022634
 H         2.181195         1.423810         3.315093
 H        -0.690460        -0.814282         0.161807
 H        -0.445945         0.814078        -0.137679
 H         0.194521        -0.375466        -1.208832
 H         1.447765        -2.157046         1.898369
 H         2.548220        -1.820676         0.686875
 H         3.870395        -1.016715         3.331423
