19
Iteration:  2943
 C         2.983626         1.645176         0.152594
 C         2.342297         0.791448         1.159278
 C         1.861010         0.745773         2.576438
 O         0.531546         0.431546         2.226775
 C         1.029187        -0.097014         0.950888
 C         0.183471        -0.023627        -0.264570
 C         1.901137        -1.417333         1.259086
 C         2.727280        -0.388814         2.014686
 O         3.981959        -0.519113         2.606489
 H         3.945895         2.228631         0.373733
 H         3.051462         1.266576        -0.850385
 H         2.271675         2.437546         0.227076
 H         1.863023         1.264599         3.505039
 H        -0.714448        -0.576807         0.048336
 H        -0.004276         0.988281        -0.726025
 H         0.633217        -0.680368        -1.003120
 H         1.441354        -2.200423         1.698414
 H         2.506698        -1.746395         0.399802
 H         3.823081        -0.716221         3.528240
