19
Iteration:   991
 C         2.906448         2.008935         0.572797
 C         2.309564         0.801364         1.212535
 C         1.700301         0.597675         2.596179
 O         0.456937         0.329342         2.065780
 C         1.137738        -0.056254         0.776445
 C         0.073989        -0.166496        -0.225910
 C         2.065675        -1.310332         1.118112
 C         2.827920        -0.385841         2.026742
 O         4.053949        -0.604231         2.604443
 H         3.760311         2.398961         1.143953
 H         3.234406         1.885531        -0.440944
 H         2.117869         2.750321         0.407150
 H         1.815164         1.155664         3.439566
 H        -0.766803        -0.888053         0.095141
 H        -0.288503         0.873646        -0.301844
 H         0.521496        -0.453767        -1.153564
 H         1.500442        -2.158684         1.517273
 H         2.674786        -1.661183         0.192262
 H         4.366015        -1.445307         2.167291
