19
Iteration:  4805
 C         2.960088         1.802126         0.174255
 C         2.341961         0.785019         1.001095
 C         1.868355         0.844215         2.454108
 O         0.547848         0.484491         2.180329
 C         1.061828        -0.033818         0.861563
 C         0.116479        -0.326041        -0.235130
 C         1.828002        -1.331961         1.384708
 C         2.772243        -0.311403         2.154153
 O         4.033097        -0.704059         2.642342
 H         3.963986         2.006719         0.608191
 H         3.075470         1.616617        -0.940144
 H         2.487406         2.801721         0.271539
 H         2.004081         1.534840         3.290704
 H        -0.553934        -1.035354         0.152111
 H        -0.544247         0.537881        -0.505504
 H         0.619296        -0.720583        -1.071202
 H         1.261146        -2.099062         2.053645
 H         2.407722        -1.706707         0.533544
 H         3.968223        -0.631256         3.615650
