19
Iteration:  1426
 C         3.052706         1.879508         0.360171
 C         2.369874         0.822975         1.169530
 C         1.709209         0.790243         2.513640
 O         0.431629         0.264169         2.156270
 C         1.033464        -0.133858         0.859159
 C         0.043788        -0.097340        -0.254073
 C         1.989974        -1.387181         1.296480
 C         2.792980        -0.353633         2.012188
 O         4.078441        -0.530073         2.593493
 H         4.041178         2.240646         0.791381
 H         3.360792         1.500511        -0.680813
 H         2.336834         2.647069         0.258726
 H         1.923208         1.443160         3.297567
 H        -0.924063        -0.467967         0.210571
 H        -0.058942         0.845272        -0.789644
 H         0.281800        -0.950298        -0.917963
 H         1.534991        -2.210907         1.812577
 H         2.525167        -1.709715         0.330073
 H         4.280348        -1.400557         2.918858
