19
Iteration:  3760
 C         3.106751         1.766352         0.239844
 C         2.356119         0.758761         1.106547
 C         1.931193         0.751797         2.472654
 O         0.461029         0.547784         2.260943
 C         0.936514        -0.050319         0.906477
 C         0.080918        -0.261271        -0.262662
 C         1.786930        -1.283421         1.360899
 C         2.802291        -0.393560         2.019318
 O         4.075129        -0.604664         2.561359
 H         2.880114         2.798463         0.154343
 H         4.203310         1.586363         0.381834
 H         2.918006         1.310226        -0.854181
 H         1.945049         1.414006         3.290893
 H        -0.567764        -1.290261        -0.009624
 H        -0.668258         0.689940        -0.432287
 H         0.788867        -0.515326        -1.061042
 H         1.101942        -2.067764         1.899282
 H         2.251722        -1.823989         0.541221
 H         3.930312        -0.713386         3.528084
