19
Iteration:  1945charge 0 multiplicity 1
 C         2.901932         1.859370         0.281732
 C         2.372326         0.802712         1.172624
 C         1.896663         0.659729         2.509961
 O         0.510955         0.420945         2.165507
 C         1.098943        -0.069107         0.903850
 C         0.095516        -0.134716        -0.274753
 C         1.906023        -1.402494         1.263758
 C         2.765593        -0.415931         1.980811
 O         3.989119        -0.556743         2.662416
 H         3.818005         2.291126         0.729827
 H         3.184512         1.283866        -0.730619
 H         2.228166         2.630590        -0.068152
 H         2.113401         1.364427         3.459433
 H        -0.396838        -1.136354        -0.213099
 H        -0.575251         0.664384        -0.492443
 H         0.727702        -0.350225        -1.167597
 H         1.516578        -2.212518         1.905827
 H         2.349962        -1.960302         0.459763
 H         3.957520        -0.067760         3.527078
