19
Iteration:  3452charge 0 multiplicity 1
 C         3.079159         1.742282         0.229114
 C         2.324921         0.768790         1.043675
 C         1.803253         0.864338         2.483143
 O         0.456776         0.393152         2.127881
 C         0.988586        -0.135051         0.911127
 C         0.065127        -0.116526        -0.266301
 C         1.902560        -1.417002         1.432184
 C         2.767727        -0.309353         2.101480
 O         4.164220        -0.586751         2.599783
 H         3.570368         2.415196         0.873015
 H         3.816552         1.119019        -0.334245
 H         2.322687         2.382488        -0.439491
 H         1.750994         1.705060         3.181441
 H        -0.855657        -0.647854         0.119172
 H        -0.227437         0.851908        -0.302921
 H         0.334029        -0.390639        -1.293969
 H         1.321865        -2.263846         2.004537
 H         2.240712        -1.929737         0.555527
 H         3.989305        -0.983639         3.489217
