19
Iteration:  1304charge 0 multiplicity 1
 C         2.962340         1.850105         0.298320
 C         2.318339         0.855485         1.138888
 C         1.820943         0.638958         2.547833
 O         0.460184         0.277061         2.196415
 C         1.072456        -0.028986         0.830245
 C         0.081576        -0.047966        -0.261834
 C         1.975186        -1.380128         1.233172
 C         2.818861        -0.387920         2.007255
 O         4.016085        -0.611436         2.660690
 H         3.736056         2.490353         0.866266
 H         3.507976         1.503775        -0.630804
 H         2.200058         2.639430        -0.004715
 H         2.171047         0.904107         3.643853
 H        -0.352237        -1.117517        -0.178398
 H        -0.736833         0.716565        -0.244978
 H         0.690418        -0.017725        -1.167397
 H         1.570743        -2.347754         1.648483
 H         2.469972        -1.707451         0.272815
 H         3.893052         0.212528         3.267218
