19
Iteration:  2295
 C         3.113066         1.902510         0.327932
 C         2.258507         0.809580         1.041218
 C         1.855663         0.824705         2.434593
 O         0.479889         0.328347         2.157556
 C         0.989815        -0.078814         0.859879
 C         0.069951        -0.227525        -0.210947
 C         1.921657        -1.392572         1.349940
 C         2.770658        -0.357948         2.093362
 O         4.009011        -0.622481         2.582673
 H         3.978501         1.978681         1.099345
 H         3.630342         1.451959        -0.586447
 H         2.814331         2.831811         0.081315
 H         1.920306         1.356404         3.355459
 H        -0.728481        -0.959225         0.080914
 H        -0.299432         0.800894        -0.486453
 H         0.534457        -0.682365        -1.098243
 H         1.279023        -1.997527         1.963870
 H         2.407107        -1.967328         0.492830
 H         4.252291         0.057912         3.208363
