19
Iteration:  1203
 C         3.010591         1.984092         0.519488
 C         2.274080         0.828600         1.100675
 C         1.837362         0.640118         2.536998
 O         0.448429         0.211025         2.250311
 C         0.989913        -0.117195         0.877393
 C         0.213594        -0.169863        -0.360724
 C         1.915616        -1.287249         1.260416
 C         2.790648        -0.313564         1.990841
 O         3.975205        -0.635362         2.563885
 H         3.862662         2.394773         1.081616
 H         3.268993         1.712053        -0.494099
 H         2.359851         2.951876         0.281129
 H         2.109590         1.306219         3.266338
 H        -0.793476        -0.603595        -0.207159
 H        -0.015319         0.904567        -0.660729
 H         0.832595        -0.719171        -1.172558
 H         1.401072        -2.140003         1.894111
 H         2.487147        -1.796799         0.499022
 H         4.685860        -0.084852         2.102311
