19
Iteration:  4350charge 0 multiplicity 1
 C         3.256478         1.516933         0.184236
 C         2.317878         0.825011         1.109503
 C         1.803788         0.846493         2.558527
 O         0.502572         0.351424         2.233393
 C         1.095703        -0.010752         0.952269
 C        -0.079203        -0.060431        -0.139779
 C         1.815449        -1.307556         1.305356
 C         2.749814        -0.333524         2.094779
 O         4.064729        -0.617753         2.411207
 H         4.231255         1.072415         0.037584
 H         2.754410         1.642333        -0.753822
 H         3.194728         2.639243         0.527853
 H         2.060748         1.417836         3.457671
 H        -1.003959        -0.604415         0.150748
 H        -0.467384         1.000653        -0.297745
 H         0.390617        -0.429261        -1.015255
 H         1.043984        -2.071194         1.698902
 H         2.431247        -1.647145         0.426387
 H         4.139588        -0.545775         3.383771
