19
Iteration:  4908
 C         3.096045         1.522075         0.126322
 C         2.246824         0.794579         1.166943
 C         1.694147         0.721682         2.609813
 O         0.393205         0.468055         2.201012
 C         1.059102        -0.195027         0.929995
 C         0.174303        -0.120231        -0.287932
 C         1.951635        -1.368691         1.352297
 C         2.785608        -0.325443         2.068088
 O         4.081140        -0.297811         2.564309
 H         3.484677         0.695775        -0.511745
 H         2.722680         2.250709        -0.518184
 H         3.960476         1.869717         0.717636
 H         1.851840         1.388585         3.474454
 H        -0.807808        -0.568693        -0.147076
 H         0.008135         0.851973        -0.507808
 H         0.612105        -0.557778        -1.219944
 H         1.461559        -2.227415         1.853218
 H         2.465556        -1.886992         0.454658
 H         3.922472        -0.941849         3.288702
