19
Iteration:   598
 C         2.948098         2.051097         0.537627
 C         2.319254         0.837522         1.112248
 C         1.855674         0.709325         2.495826
 O         0.377490         0.294873         2.229948
 C         1.054131        -0.145506         0.875304
 C         0.188989        -0.119697        -0.356284
 C         1.874796        -1.402411         1.282123
 C         2.767518        -0.397977         2.029850
 O         4.094818        -0.679024         2.529827
 H         3.683998         2.302856         1.318328
 H         3.511240         1.865724        -0.297042
 H         2.177462         2.915236         0.387846
 H         2.008455         1.254487         3.379270
 H        -0.657435        -0.823954        -0.604557
 H        -0.252448         0.868942        -0.464739
 H         0.988714        -0.241852        -1.094377
 H         1.248299        -1.941713         1.996489
 H         2.255427        -2.036424         0.438823
 H         4.740831        -0.487807         1.778815
