19
Iteration:  1505charge 0 multiplicity 1
 C         2.918236         1.839752         0.307606
 C         2.331739         0.772330         1.141479
 C         1.830466         0.737754         2.543428
 O         0.475130         0.383181         2.154821
 C         1.051001        -0.030171         0.811478
 C         0.110901        -0.103757        -0.295563
 C         1.972450        -1.469498         1.354383
 C         2.732292        -0.394491         2.094207
 O         4.089837        -0.554938         2.545137
 H         3.686845         2.298715         0.892031
 H         3.476353         1.320429        -0.564760
 H         2.285591         2.567446        -0.096032
 H         1.955707         1.336444         3.512794
 H        -0.607097        -0.830969         0.039537
 H        -0.401605         0.881523        -0.376973
 H         0.577882        -0.428412        -1.262727
 H         1.377330        -2.192388         1.901377
 H         2.459445        -1.884226         0.481081
 H         4.154609        -0.614426         3.496493
