19
Iteration:  3287charge 0 multiplicity 1
 C         3.316038         1.531049         0.274224
 C         2.301839         0.879355         1.179419
 C         1.693930         0.790660         2.587823
 O         0.380156         0.337502         2.189883
 C         1.040063        -0.087760         0.963025
 C         0.033254        -0.165775        -0.243511
 C         1.890939        -1.352337         1.239132
 C         2.737999        -0.361343         2.079745
 O         4.074359        -0.327186         2.469097
 H         4.289449         1.692304         0.599824
 H         3.362848         0.939520        -0.642929
 H         3.014402         2.641708         0.124276
 H         1.940935         1.311258         3.493254
 H        -0.980482        -0.526112         0.111391
 H        -0.043617         0.687795        -0.885213
 H         0.434567        -0.941242        -1.027730
 H         1.479313        -2.246400         1.895847
 H         2.311853        -1.743549         0.248845
 H         4.110944        -0.844315         3.291925
