19
Iteration:   458
 C         2.963083         1.911053         0.659325
 C         2.248206         0.782667         1.166640
 C         1.905452         0.611841         2.542707
 O         0.414514         0.363838         2.104694
 C         1.081675        -0.123338         0.778148
 C         0.118978        -0.064359        -0.288298
 C         1.873914        -1.394132         1.221340
 C         2.774346        -0.449239         2.094953
 O         4.112065        -0.492882         2.491330
 H         3.683808         2.335435         1.361051
 H         3.580737         1.788723        -0.323644
 H         2.223291         2.686458         0.427034
 H         2.070398         1.236036         3.341009
 H        -0.633676        -0.920719        -0.142852
 H        -0.472703         0.828317        -0.271322
 H         0.617481        -0.198066        -1.226409
 H         1.266500        -2.129327         1.731960
 H         2.514149        -1.867996         0.403420
 H         4.503188        -1.060127         1.777041
