19
Iteration:  1122
 C         2.962108         1.962487         0.322034
 C         2.265092         0.868549         1.149509
 C         1.813936         0.605811         2.505368
 O         0.447541         0.137267         2.314989
 C         1.024001        -0.092144         0.822681
 C         0.170920        -0.010934        -0.328350
 C         1.966316        -1.308236         1.184709
 C         2.812882        -0.398079         2.044168
 O         3.977292        -0.636211         2.696809
 H         3.772733         2.388043         0.978155
 H         3.483232         1.526530        -0.608626
 H         2.254280         2.818400         0.013667
 H         2.132080         1.123933         3.487134
 H        -0.407629        -0.932298        -0.515611
 H        -0.458009         0.845119        -0.181156
 H         0.752559         0.204559        -1.179406
 H         1.710637        -2.254447         1.610098
 H         2.411927        -1.351150         0.112922
 H         4.725365        -0.004289         2.416927
