19
Iteration:  1378charge 0 multiplicity 1
 C         2.984510         1.901159         0.345710
 C         2.363356         0.804284         1.119328
 C         1.800659         0.775543         2.513207
 O         0.479643         0.255799         2.252409
 C         0.979383        -0.082318         0.865172
 C         0.194092        -0.123116        -0.350864
 C         1.854740        -1.378317         1.350810
 C         2.801393        -0.431000         2.011437
 O         4.027196        -0.587696         2.562698
 H         3.908524         2.243344         0.821245
 H         3.390201         1.694062        -0.584002
 H         2.211288         2.776798         0.340879
 H         1.938776         1.117040         3.598216
 H        -0.439229        -1.027343        -0.278105
 H        -0.359535         0.844246        -0.414009
 H         0.843548        -0.260739        -1.226343
 H         1.175092        -2.075107         1.984852
 H         2.292554        -1.909422         0.507940
 H         4.556567         0.231042         2.662386
