19
Iteration:  2695
 C         3.224620         1.716577         0.422440
 C         2.353276         0.841825         1.131139
 C         1.771142         0.797126         2.536424
 O         0.496865         0.404921         2.130256
 C         1.001915        -0.055201         0.906362
 C         0.033533        -0.234578        -0.179904
 C         1.877737        -1.357958         1.282632
 C         2.670011        -0.366719         2.026679
 O         4.056287        -0.542059         2.415859
 H         4.101337         1.868758         0.969632
 H         3.557587         1.420661        -0.672086
 H         2.789306         2.754413         0.088055
 H         1.950651         1.532527         3.350071
 H        -0.654014        -1.087318         0.181132
 H        -0.752725         0.584649        -0.187173
 H         0.529536        -0.494407        -1.109443
 H         1.378809        -1.884055         2.017736
 H         2.403030        -1.804545         0.498983
 H         4.026076        -0.856804         3.317039
