19
Iteration:  2128
 C         2.945085         1.910843         0.241219
 C         2.378902         0.824874         1.054771
 C         1.810633         0.822518         2.458510
 O         0.541374         0.394296         2.236756
 C         1.063960        -0.158120         0.936316
 C         0.145260        -0.246808        -0.315433
 C         1.895189        -1.323685         1.353691
 C         2.774706        -0.340239         1.962615
 O         3.981655        -0.718955         2.679352
 H         3.664705         2.385949         0.832592
 H         3.324333         1.747709        -0.777727
 H         2.208980         2.704773         0.255236
 H         2.154472         1.255232         3.495292
 H        -0.644211        -1.048287        -0.286700
 H        -0.321888         0.673728        -0.610793
 H         0.843428        -0.541307        -1.137134
 H         1.410672        -1.959755         2.093528
 H         2.077711        -1.804686         0.448179
 H         4.118383        -0.170168         3.440973
