19
Iteration:   606charge 0 multiplicity 1
 C         2.933141         2.004405         0.596878
 C         2.356082         0.765968         1.188481
 C         1.772736         0.665299         2.517645
 O         0.390582         0.388098         2.170056
 C         1.107369        -0.135193         0.860299
 C         0.185669        -0.154548        -0.336545
 C         1.886115        -1.354815         1.318228
 C         2.807267        -0.386253         1.996050
 O         4.060240        -0.684410         2.480671
 H         3.642619         2.463291         1.331326
 H         3.397214         1.793783        -0.393048
 H         2.211881         2.823683         0.425264
 H         2.103338         1.258836         3.310311
 H        -0.561688        -0.924770        -0.261934
 H        -0.341418         0.804835        -0.538688
 H         0.782764        -0.200435        -1.326012
 H         1.492664        -2.221173         1.951859
 H         2.254489        -1.731211         0.361496
 H         4.588053        -0.266483         1.750941
