19
Iteration:  1640charge 0 multiplicity 1
 C         3.089959         1.835039         0.275696
 C         2.317135         0.771576         1.097739
 C         1.796371         0.783148         2.479056
 O         0.423182         0.308678         2.238626
 C         1.075134        -0.220427         0.845407
 C         0.082759        -0.141096        -0.247112
 C         1.883881        -1.330383         1.327756
 C         2.831392        -0.293380         2.079311
 O         4.050817        -0.518972         2.565866
 H         3.900897         2.202370         0.929486
 H         3.589429         1.444980        -0.596753
 H         2.497437         2.735610        -0.091702
 H         1.962814         1.600884         3.072800
 H        -0.864083        -0.465495         0.271143
 H         0.050942         0.879153        -0.612461
 H         0.235941        -0.859286        -1.034092
 H         1.340038        -2.143269         1.874977
 H         2.307781        -1.823006         0.474705
 H         3.844173        -1.132372         3.257075
