19
Iteration:  1779charge 0 multiplicity 1
 C         2.996944         1.765166         0.257387
 C         2.304534         0.772876         1.092974
 C         1.794756         0.732680         2.544228
 O         0.521910         0.401857         2.183976
 C         1.050605        -0.089080         0.925647
 C         0.078394        -0.127870        -0.287092
 C         1.972451        -1.354175         1.303260
 C         2.815116        -0.350243         1.986305
 O         3.965073        -0.545918         2.754228
 H         3.872788         2.187151         0.680779
 H         3.249272         1.364870        -0.844502
 H         2.328264         2.571862         0.161343
 H         1.917057         1.183978         3.464355
 H        -0.405470        -1.094224        -0.191642
 H        -0.703909         0.631032        -0.287088
 H         0.502413        -0.063377        -1.284478
 H         1.675981        -2.303718         1.756881
 H         2.375812        -1.714658         0.411854
 H         4.607687        -0.717832         1.974001
