19
Iteration:  1607
 C         3.067203         1.801939         0.242712
 C         2.350753         0.832493         1.104329
 C         1.801372         0.739823         2.544371
 O         0.451496         0.341686         2.189948
 C         1.058476        -0.214089         0.869730
 C         0.046832        -0.130427        -0.266742
 C         1.971508        -1.326059         1.347909
 C         2.781034        -0.298874         1.991450
 O         4.008612        -0.616872         2.623684
 H         3.983876         2.152960         0.751673
 H         3.395947         1.332969        -0.686074
 H         2.476501         2.749602         0.073061
 H         1.981566         1.306139         3.403315
 H        -0.846678        -0.702251         0.082952
 H        -0.338727         0.870426        -0.434790
 H         0.438063        -0.519631        -1.190545
 H         1.439293        -2.073113         1.970886
 H         2.327965        -1.750061         0.440928
 H         4.221543         0.098650         3.275787
