19
Iteration:  1862charge 0 multiplicity 1
 C         3.025171         1.866423         0.311000
 C         2.317591         0.740769         1.119410
 C         1.790750         0.739668         2.540432
 O         0.404151         0.394770         2.181181
 C         1.093145        -0.031414         0.995767
 C         0.113455        -0.165454        -0.287260
 C         1.883181        -1.460227         1.254998
 C         2.778650        -0.472205         2.028307
 O         4.109054        -0.527670         2.548904
 H         3.781465         2.332970         1.059207
 H         3.567549         1.554464        -0.508638
 H         2.254713         2.707845         0.008976
 H         1.945447         1.264118         3.467104
 H        -0.927325        -0.450088        -0.020772
 H        -0.013519         0.749856        -1.033074
 H         0.541661        -1.032141        -0.889051
 H         1.310899        -2.204384         1.864603
 H         2.593858        -1.675498         0.357739
 H         4.078275         0.191256         3.171345
