19
Iteration:  2215charge 0 multiplicity 1
 C         3.170193         1.698631         0.202054
 C         2.295421         0.804647         1.100590
 C         1.768033         0.776857         2.527108
 O         0.452471         0.295155         2.240466
 C         0.954502        -0.157017         0.899512
 C         0.126152        -0.058454        -0.285040
 C         1.920029        -1.444261         1.351830
 C         2.716078        -0.310065         2.020942
 O         4.049179        -0.387952         2.609575
 H         3.883386         2.196938         0.795866
 H         3.658269         1.214907        -0.667592
 H         2.461130         2.519755        -0.066429
 H         2.138191         1.161333         3.550562
 H        -0.738357        -0.664213        -0.141640
 H        -0.212805         0.909263        -0.495779
 H         0.767557        -0.376416        -1.089467
 H         1.537722        -2.247304         1.927525
 H         2.412321        -1.753245         0.496916
 H         4.023109        -1.264750         2.999046
