19
Iteration:  2006charge 0 multiplicity 1
 C         3.016538         1.728384         0.253769
 C         2.347833         0.739623         1.147419
 C         1.727897         0.737297         2.596141
 O         0.342772         0.403315         2.084909
 C         1.078202        -0.208109         0.867207
 C         0.171190        -0.085926        -0.249648
 C         1.909913        -1.352435         1.397857
 C         2.773609        -0.287070         2.173987
 O         4.132856        -0.498096         2.460237
 H         3.897407         2.080896         0.800441
 H         3.372023         1.343070        -0.664333
 H         2.400871         2.685162         0.185446
 H         1.793789         1.340364         3.537763
 H        -0.532908        -0.921910        -0.186270
 H        -0.407361         0.885923        -0.294088
 H         0.794777        -0.045028        -1.158242
 H         1.477938        -2.138388         2.064880
 H         2.561544        -1.668385         0.577410
 H         4.094489        -1.374300         2.879905
