19
Iteration:  4981
 C         3.104077         1.777763         0.268182
 C         2.393270         0.704435         1.017665
 C         1.768026         0.834827         2.437373
 O         0.456267         0.450766         2.059715
 C         1.063006        -0.202674         0.909185
 C         0.021517        -0.275492        -0.199565
 C         1.850116        -1.427191         1.454886
 C         2.819793        -0.291186         2.072803
 O         4.073646        -0.458814         2.645718
 H         2.588505         2.096969        -0.616185
 H         3.139366         2.713495         0.873115
 H         4.179457         1.451719         0.017212
 H         1.868659         1.758678         3.011274
 H        -0.814162        -0.929094        -0.152314
 H        -0.482292         0.758943        -0.554090
 H         0.528737        -0.510409        -1.119105
 H         1.515825        -2.183987         2.142498
 H         2.216912        -2.025965         0.683392
 H         3.913966        -0.516989         3.608296
