19
Iteration:  3356charge 0 multiplicity 1
 C         3.014794         1.840259         0.156988
 C         2.350739         0.764131         1.026085
 C         1.787635         0.808691         2.467409
 O         0.478396         0.396161         2.082867
 C         1.078826        -0.182355         0.873860
 C         0.177293        -0.106892        -0.196417
 C         1.879856        -1.409878         1.468589
 C         2.767440        -0.366697         2.145516
 O         4.016167        -0.599126         2.606184
 H         3.992896         2.097898         0.452512
 H         2.982807         1.297473        -0.807947
 H         2.315862         2.694432         0.223325
 H         1.992166         1.433581         3.382273
 H        -0.753074        -0.738339         0.028642
 H        -0.207597         1.005350        -0.255920
 H         0.541152        -0.205923        -1.210209
 H         1.261143        -2.009345         2.236499
 H         2.445195        -2.028013         0.752404
 H         4.207314        -0.542065         3.572960
