19
Iteration:  4911
 C         3.107785         1.508239         0.143065
 C         2.242235         0.775659         1.190202
 C         1.699191         0.755979         2.617479
 O         0.402131         0.444370         2.211955
 C         1.073775        -0.175666         0.899850
 C         0.174326        -0.121978        -0.301048
 C         1.945829        -1.365129         1.342718
 C         2.766326        -0.321421         2.067503
 O         4.080236        -0.287542         2.566746
 H         3.397326         0.700681        -0.620352
 H         2.668949         2.277742        -0.549378
 H         3.948358         1.772981         0.709138
 H         1.931597         1.353476         3.501903
 H        -0.886850        -0.629165        -0.089682
 H        -0.034383         0.951554        -0.579670
 H         0.675520        -0.673208        -1.219150
 H         1.440092        -2.204011         1.788985
 H         2.357955        -1.856366         0.483683
 H         4.034306        -0.925323         3.314641
