19
Iteration:  3269
 C         3.219022         1.591468         0.345093
 C         2.283167         0.802608         1.146574
 C         1.746775         0.748717         2.576712
 O         0.454686         0.331577         2.116918
 C         1.017741        -0.130425         0.817576
 C        -0.004546        -0.162540        -0.253010
 C         1.896519        -1.269133         1.375227
 C         2.721125        -0.261961         2.077449
 O         4.131250        -0.438807         2.458479
 H         4.181563         1.757907         0.931440
 H         3.513486         0.831076        -0.458213
 H         3.002794         2.592266        -0.125143
 H         1.735940         1.481406         3.482109
 H        -0.888344        -0.638271         0.301508
 H        -0.247373         0.953826        -0.515629
 H         0.254825        -0.824710        -1.103134
 H         1.282590        -2.014761         1.847714
 H         2.549736        -1.733418         0.686189
 H         4.048748        -0.580019         3.420716
