19
Iteration:  4149charge 0 multiplicity 1
 C         3.253762         1.663093         0.236985
 C         2.373593         0.794337         1.114479
 C         1.890030         0.759113         2.533645
 O         0.479726         0.484111         2.207250
 C         0.990201        -0.046739         0.940659
 C        -0.067571        -0.067706        -0.082382
 C         1.783682        -1.411872         1.368953
 C         2.746111        -0.384086         1.996313
 O         4.071887        -0.596290         2.372702
 H         3.912460         2.221748         0.915042
 H         3.798866         1.094268        -0.521821
 H         2.675949         2.479897        -0.259924
 H         2.284783         1.501122         3.274448
 H        -0.814015        -0.751442         0.175219
 H        -0.419755         0.909952        -0.051254
 H         0.366601        -0.246022        -1.093884
 H         0.986382        -1.962264         1.999676
 H         2.108608        -2.025575         0.520477
 H         4.006379        -1.167756         3.162864
