19
Iteration:  2862charge 0 multiplicity 1
 C         3.258833         1.741031         0.458722
 C         2.361226         0.703087         1.088931
 C         1.813916         0.755996         2.498341
 O         0.433199         0.486082         2.136558
 C         0.958011        -0.123470         0.938724
 C        -0.043203        -0.194745        -0.206043
 C         1.826373        -1.383399         1.347777
 C         2.810804        -0.369697         1.965562
 O         4.098055        -0.437217         2.426081
 H         3.939125         1.711590         1.304499
 H         3.862732         1.322711        -0.324115
 H         3.002019         2.791072         0.068556
 H         1.986679         1.512047         3.345143
 H        -0.748287        -1.094151        -0.036710
 H        -0.869575         0.550238        -0.277026
 H         0.561786        -0.515282        -1.148038
 H         1.161621        -2.203882         1.930474
 H         2.150604        -1.788683         0.378024
 H         3.990277        -0.674873         3.353110
