19
Iteration:  1259charge 0 multiplicity 1
 C         3.004425         1.884047         0.405711
 C         2.289621         0.761950         1.119576
 C         1.691380         0.703874         2.565252
 O         0.455030         0.209246         2.157664
 C         1.102352        -0.098775         0.864154
 C         0.091266        -0.047615        -0.311348
 C         1.986677        -1.370952         1.247168
 C         2.779984        -0.332982         2.097581
 O         4.087828        -0.490516         2.580365
 H         3.895504         2.241254         1.007708
 H         3.570763         1.630265        -0.506509
 H         2.355075         2.855709         0.183380
 H         1.777773         1.287496         3.495787
 H        -0.798798        -0.561685         0.172079
 H        -0.201663         1.030553        -0.529693
 H         0.329395        -0.591349        -1.268423
 H         1.451579        -2.286140         1.743511
 H         2.680287        -1.722437         0.473987
 H         4.272556        -1.450335         2.276365
