19
Iteration:   920charge 0 multiplicity 1
 C         2.916478         1.924159         0.423687
 C         2.334529         0.847031         1.255377
 C         1.685529         0.559124         2.634966
 O         0.418741         0.186912         2.190915
 C         1.055664        -0.191746         0.868732
 C         0.190713         0.098260        -0.351692
 C         2.032836        -1.396030         1.156761
 C         2.787323        -0.336147         2.064752
 O         4.059678        -0.600161         2.524430
 H         3.684501         2.443489         1.003075
 H         3.368670         1.710622        -0.593432
 H         2.075932         2.588427         0.181022
 H         1.631040         0.932092         3.751342
 H        -0.410132        -0.698763        -0.671792
 H        -0.416744         0.982470        -0.178155
 H         0.868214         0.327013        -1.214991
 H         1.690111        -2.301285         1.693821
 H         2.626740        -1.730373         0.365015
 H         4.553425         0.213763         2.303905
