19
Iteration:  3168charge 0 multiplicity 1
 C         2.872190         1.791511         0.131305
 C         2.329346         0.820077         1.067793
 C         1.782364         0.861553         2.523310
 O         0.446500         0.460441         2.174368
 C         1.106530        -0.148633         0.912735
 C         0.244159        -0.069601        -0.252426
 C         1.910470        -1.394455         1.439685
 C         2.823134        -0.326347         2.081400
 O         4.015452        -0.764239         2.611022
 H         3.662460         2.407029         0.345373
 H         3.179744         1.218798        -0.793227
 H         2.044641         2.605096        -0.065430
 H         2.006963         1.501293         3.292170
 H        -0.452802        -0.936785         0.039137
 H        -0.211982         0.908583        -0.463177
 H         0.856542        -0.304015        -1.212102
 H         1.620455        -2.225263         2.055963
 H         2.373715        -1.749973         0.543939
 H         4.077401        -1.045618         3.558202
