19
Iteration:   773charge 0 multiplicity 1
 C         2.907586         2.068404         0.492054
 C         2.241853         0.890410         1.138059
 C         1.794190         0.622998         2.567330
 O         0.501239         0.199252         2.311530
 C         1.060517        -0.087733         0.836927
 C         0.215277        -0.057205        -0.413842
 C         1.961726        -1.412604         1.260594
 C         2.760705        -0.375634         1.953964
 O         4.019425        -0.716192         2.496208
 H         3.617854         2.436805         1.279504
 H         3.363204         1.744266        -0.420738
 H         2.210652         3.044752         0.306856
 H         1.813709         1.221092         3.553199
 H        -0.504699        -0.967441        -0.463855
 H        -0.195720         0.942626        -0.647647
 H         0.947450        -0.094043        -1.241076
 H         1.321922        -1.996544         1.922567
 H         2.679456        -1.910167         0.506220
 H         4.476825        -0.023688         2.969880
