19
Iteration:  4366charge 0 multiplicity 1
 C         3.122366         1.620816         0.147728
 C         2.321382         0.810953         1.134905
 C         1.894648         0.750544         2.560204
 O         0.494706         0.414380         2.307436
 C         0.950906        -0.095247         0.895606
 C        -0.054990         0.034062        -0.264701
 C         1.811081        -1.291275         1.322906
 C         2.781624        -0.373695         2.041676
 O         4.152343        -0.630235         2.532095
 H         4.043090         0.935949         0.046573
 H         2.620458         1.495159        -0.896778
 H         3.451285         2.557585         0.388402
 H         1.956001         1.522388         3.331037
 H        -0.977233        -0.527760         0.169492
 H        -0.256540         1.050170        -0.549511
 H         0.262083        -0.606022        -1.200075
 H         1.470418        -2.045836         1.940819
 H         2.280341        -1.772854         0.495261
 H         4.243022        -0.696778         3.496465
