19
Iteration:   584
 C         2.997178         2.079375         0.465239
 C         2.213396         0.822460         1.087982
 C         1.797440         0.671149         2.547509
 O         0.556072         0.169116         2.240400
 C         0.961212        -0.143565         0.909638
 C         0.235234        -0.012491        -0.397526
 C         1.788094        -1.399181         1.342073
 C         2.830688        -0.392603         1.944264
 O         4.044847        -0.624530         2.599405
 H         3.683764         2.542924         1.205477
 H         3.435784         1.928162        -0.534005
 H         2.317305         2.930218         0.280341
 H         1.974578         1.354549         3.339229
 H        -0.505210        -0.770563        -0.357698
 H        -0.225768         0.990595        -0.596992
 H         0.928044        -0.165894        -1.298536
 H         1.252229        -2.218788         1.943556
 H         2.367422        -1.926830         0.582884
 H         4.641977        -0.963389         1.927946
