19
Iteration:  1096
 C         2.915152         1.920093         0.398707
 C         2.284959         0.880343         1.289943
 C         1.729798         0.650212         2.609482
 O         0.420457         0.158840         2.208063
 C         1.120643        -0.124086         0.816235
 C         0.174574         0.012749        -0.297146
 C         2.017303        -1.375567         1.172340
 C         2.827350        -0.330039         1.996138
 O         4.008020        -0.526827         2.555473
 H         3.825360         2.293191         0.928632
 H         3.388648         1.271602        -0.385532
 H         2.368869         2.744414         0.044846
 H         1.784761         1.235292         3.465780
 H        -0.526121        -0.804187        -0.278901
 H        -0.376847         0.964450        -0.285777
 H         0.767506        -0.028174        -1.235140
 H         1.471163        -2.180082         1.743579
 H         2.573887        -1.857507         0.372429
 H         4.392375        -1.427822         2.301937
