19
Iteration:  4086
 C         3.247013         1.622646         0.255684
 C         2.362144         0.779936         1.106507
 C         1.853286         0.824734         2.524280
 O         0.479137         0.484182         2.204594
 C         1.053116        -0.050151         0.990598
 C        -0.048119        -0.102644        -0.149853
 C         1.780693        -1.390738         1.436324
 C         2.739076        -0.327600         2.023400
 O         4.050484        -0.617584         2.314622
 H         4.254205         1.252142         0.287421
 H         3.010637         1.666549        -0.790271
 H         3.158116         2.698398         0.692803
 H         1.996616         1.339913         3.483229
 H        -0.919172        -0.869559         0.063634
 H        -0.509184         0.930031        -0.208766
 H         0.495422        -0.335493        -1.175585
 H         1.162255        -2.081114         1.962222
 H         2.182129        -1.921067         0.602192
 H         4.216979        -0.885273         3.235137
