19
Iteration:  3139
 C         2.994311         1.714461         0.160836
 C         2.353512         0.754556         1.107101
 C         1.835854         0.795883         2.543855
 O         0.481510         0.326478         2.226876
 C         1.022290        -0.087809         0.914841
 C         0.192682        -0.026532        -0.336800
 C         1.794084        -1.408295         1.381470
 C         2.765851        -0.367787         2.087662
 O         4.063232        -0.494277         2.602441
 H         4.101102         1.927618         0.479415
 H         2.983855         1.365700        -0.930384
 H         2.469969         2.600205        -0.077102
 H         2.011690         1.308713         3.551835
 H        -0.744407        -0.505569        -0.122049
 H        -0.157021         0.920542        -0.811009
 H         0.758035        -0.652148        -0.955882
 H         1.323810        -2.192860         2.046720
 H         2.276287        -1.843714         0.443194
 H         4.125773        -0.805976         3.513130
