19
Iteration:  3606
 C         2.955241         1.875671         0.185447
 C         2.392998         0.700190         1.021935
 C         1.867240         0.880947         2.417412
 O         0.532953         0.520313         2.118729
 C         1.005062        -0.138501         0.938217
 C         0.208427        -0.185216        -0.217320
 C         1.876002        -1.463898         1.473639
 C         2.748694        -0.381686         2.096042
 O         3.996149        -0.634017         2.623434
 H         3.845998         2.239399         0.536274
 H         3.030113         1.644186        -0.879917
 H         2.077952         2.599774         0.205628
 H         2.266805         1.651550         3.126403
 H        -0.605031        -1.052284        -0.109804
 H        -0.430826         0.702633        -0.061680
 H         0.658178        -0.331605        -1.212494
 H         1.173919        -2.034302         2.088483
 H         2.321875        -2.008264         0.699261
 H         3.925389        -1.110893         3.456981
