19
Iteration:  1089charge 0 multiplicity 1
 C         2.923452         1.881362         0.449883
 C         2.280825         0.887674         1.277083
 C         1.709020         0.619571         2.601303
 O         0.410287         0.180568         2.185850
 C         1.173349        -0.085335         0.798525
 C         0.170086        -0.001903        -0.330704
 C         2.023216        -1.354252         1.227620
 C         2.728401        -0.365940         2.007580
 O         4.090699        -0.507365         2.518007
 H         3.824989         2.389153         0.896283
 H         3.319400         1.305815        -0.476674
 H         2.207312         2.681349         0.148927
 H         1.896566         1.201899         3.511119
 H        -0.623894        -0.747962        -0.140204
 H        -0.308654         0.960205        -0.201950
 H         0.614355        -0.071657        -1.286251
 H         1.606901        -2.199503         1.709776
 H         2.487478        -1.837270         0.307194
 H         4.226198        -1.498722         2.607655
