19
Iteration:   559
 C         2.912539         1.925857         0.357551
 C         2.302999         0.794127         1.199530
 C         1.790664         0.629103         2.587150
 O         0.451279         0.220402         2.227113
 C         1.069633        -0.094074         0.868410
 C         0.200747         0.045860        -0.287637
 C         2.001424        -1.360131         1.127273
 C         2.803672        -0.407974         1.954469
 O         3.981005        -0.556456         2.663160
 H         3.690385         2.497362         0.847015
 H         3.180398         1.613308        -0.752383
 H         2.185159         2.662177         0.197087
 H         2.172739         1.003487         3.625755
 H        -0.689681        -0.593770        -0.153308
 H        -0.181574         1.096137        -0.291024
 H         0.712975        -0.042728        -1.242868
 H         1.314130        -2.023267         1.682123
 H         2.653820        -1.972969         0.502170
 H         4.429016        -1.332663         2.377988
