19
Iteration:  3070charge 0 multiplicity 1
 C         3.338792         1.641583         0.408714
 C         2.319331         0.859457         1.097307
 C         1.708997         0.859688         2.446694
 O         0.478419         0.320607         2.161452
 C         1.013074        -0.166428         0.884711
 C        -0.012327        -0.191182        -0.175992
 C         1.875088        -1.325248         1.335830
 C         2.712437        -0.254452         2.064076
 O         4.037463        -0.494898         2.448181
 H         4.175023         1.825500         1.047325
 H         3.693571         1.239674        -0.663818
 H         2.899221         2.589027        -0.097491
 H         1.971823         1.325758         3.302090
 H        -0.744785        -0.841183         0.280226
 H        -0.581995         0.712304        -0.184245
 H         0.417714        -0.566126        -1.122554
 H         1.342469        -2.160855         1.826085
 H         2.438726        -1.615533         0.462192
 H         4.033468        -0.866191         3.363663
