19
Iteration:  3087charge 0 multiplicity 1
 C         3.309805         1.637824         0.350335
 C         2.307106         0.742733         1.107034
 C         1.737659         0.829440         2.501879
 O         0.403279         0.333371         2.186110
 C         0.992130        -0.126962         0.831878
 C        -0.094786        -0.136531        -0.226104
 C         1.938629        -1.377052         1.334869
 C         2.767880        -0.331107         2.088402
 O         4.104177        -0.414707         2.491779
 H         4.255105         1.614494         1.022167
 H         3.596941         1.241966        -0.604805
 H         2.981083         2.634607         0.170014
 H         1.772209         1.847728         3.172419
 H        -1.112871        -0.598345         0.031212
 H        -0.343269         0.971462        -0.348692
 H         0.252589        -0.509814        -1.206214
 H         1.386620        -2.230092         1.852200
 H         2.680077        -1.780701         0.545704
 H         4.274398        -0.819088         3.366443
