19
Iteration:   574charge 0 multiplicity 1
 C         2.931440         2.023711         0.421676
 C         2.316882         0.837470         1.141920
 C         1.858664         0.621265         2.523807
 O         0.522080         0.127775         2.273609
 C         1.093312        -0.120456         0.873245
 C         0.196754         0.034725        -0.380146
 C         1.846732        -1.396611         1.321838
 C         2.774730        -0.336050         1.930839
 O         3.963313        -0.572210         2.614095
 H         3.790955         2.339487         1.055926
 H         3.414167         1.674925        -0.450833
 H         2.160160         2.830238         0.228358
 H         1.966438         1.206630         3.371814
 H        -0.648052        -0.636558        -0.471359
 H        -0.284972         1.031588        -0.509209
 H         0.917272        -0.224442        -1.229812
 H         1.436239        -2.161195         2.055391
 H         2.147956        -1.739783         0.327012
 H         4.476876        -1.257858         2.141057
