19
Iteration:  3075
 C         3.324569         1.650995         0.386084
 C         2.340616         0.804243         1.088040
 C         1.732941         0.845821         2.453723
 O         0.425115         0.319407         2.185386
 C         1.037247        -0.226596         0.862522
 C        -0.060915        -0.154310        -0.192843
 C         1.882729        -1.309483         1.299691
 C         2.722287        -0.236544         2.128976
 O         4.071424        -0.474700         2.449757
 H         4.299547         1.787726         1.046370
 H         3.647638         1.132825        -0.548872
 H         2.995928         2.617573         0.082942
 H         1.930367         1.653946         3.340662
 H        -0.827987        -0.897172         0.198420
 H        -0.528397         0.900946        -0.353378
 H         0.315537        -0.543773        -1.132497
 H         1.388383        -2.166779         1.909729
 H         2.443622        -1.720955         0.350358
 H         4.000683        -0.836144         3.333611
