19
Iteration:  1333charge 0 multiplicity 1
 C         2.921928         1.837286         0.322796
 C         2.383429         0.766363         1.194576
 C         1.744476         0.757152         2.577438
 O         0.459140         0.335449         2.142580
 C         1.104103        -0.145724         0.845388
 C         0.122631        -0.106164        -0.270412
 C         1.905444        -1.365643         1.217329
 C         2.818599        -0.286257         2.096871
 O         4.086180        -0.569049         2.612127
 H         3.728735         2.402991         0.762479
 H         3.348327         1.571007        -0.602729
 H         1.998057         2.520430         0.162211
 H         1.924388         1.256416         3.489810
 H        -0.252174        -1.084460        -0.482969
 H        -0.617185         0.685717        -0.044976
 H         0.639021         0.210283        -1.212681
 H         1.358398        -2.261936         1.680099
 H         2.515215        -1.565602         0.358646
 H         3.996366        -1.551349         2.722514
