19
Iteration:  3336
 C         3.063545         1.693169         0.202742
 C         2.389526         0.748837         1.126654
 C         1.729772         0.784496         2.490520
 O         0.422806         0.332380         2.150134
 C         1.083441        -0.125698         0.909829
 C         0.070966        -0.064519        -0.285139
 C         1.829358        -1.417268         1.423884
 C         2.842036        -0.291676         2.064493
 O         4.099255        -0.473269         2.591902
 H         4.218262         1.755034         0.444102
 H         2.996220         1.297940        -0.846707
 H         2.785469         2.700906         0.249530
 H         1.687292         1.520509         3.274682
 H        -0.905000        -0.517575        -0.007093
 H        -0.151212         1.090928        -0.620882
 H         0.413551        -0.606469        -1.160208
 H         1.276322        -2.116169         1.978506
 H         2.512373        -2.016624         0.826970
 H         4.079318        -0.851446         3.502412
