19
Iteration:  4148charge 0 multiplicity 1
 C         3.257291         1.664053         0.244607
 C         2.367870         0.803663         1.114617
 C         1.894651         0.754816         2.530422
 O         0.468180         0.487634         2.207050
 C         0.987581        -0.040711         0.953852
 C        -0.067938        -0.075530        -0.085828
 C         1.783513        -1.416218         1.362136
 C         2.767714        -0.381885         2.002053
 O         4.067122        -0.596715         2.367938
 H         3.954006         2.211993         0.909378
 H         3.784922         1.075824        -0.539081
 H         2.724329         2.455610        -0.239261
 H         2.275028         1.520150         3.259035
 H        -0.802672        -0.751186         0.127113
 H        -0.450281         0.881006        -0.087589
 H         0.339317        -0.248087        -1.063033
 H         0.983080        -1.948393         2.032217
 H         2.076188        -2.052604         0.480496
 H         4.032560        -1.163940         3.162950
