19
Iteration:  2852
 C         3.223626         1.675705         0.468411
 C         2.318713         0.783446         1.101282
 C         1.871795         0.744498         2.494812
 O         0.461508         0.478431         2.135914
 C         0.924510        -0.056436         0.905007
 C        -0.022912        -0.232758        -0.222807
 C         1.807648        -1.338260         1.316860
 C         2.792112        -0.427898         1.963226
 O         4.090687        -0.467369         2.464683
 H         4.003977         2.074119         1.272225
 H         3.731925         1.241304        -0.365445
 H         2.546205         2.613589         0.196034
 H         2.108314         1.549878         3.284798
 H        -0.534493        -1.196218         0.109660
 H        -0.673379         0.684642        -0.393521
 H         0.446167        -0.413575        -1.299457
 H         1.385005        -2.077295         2.082252
 H         2.236718        -1.894640         0.479241
 H         4.293817        -0.603230         3.402790
