19
Iteration:  2620charge 0 multiplicity 1
 C         3.129538         1.745137         0.292411
 C         2.311061         0.855180         1.085060
 C         1.785374         0.803478         2.494336
 O         0.437599         0.323384         2.171096
 C         1.092370        -0.157109         0.860474
 C        -0.014735        -0.023658        -0.200710
 C         1.909844        -1.403396         1.357172
 C         2.805948        -0.395042         2.094382
 O         4.080557        -0.586020         2.530373
 H         3.941695         2.171427         0.852434
 H         3.629821         1.243744        -0.604544
 H         2.478602         2.604603        -0.262697
 H         1.818101         1.545624         3.325167
 H        -0.928180        -0.737662        -0.011227
 H        -0.264562         1.070554        -0.420700
 H         0.418461        -0.373597        -1.173315
 H         1.263511        -2.076698         2.006972
 H         2.387642        -1.885393         0.454631
 H         4.101325        -0.531833         3.520995
