19
Iteration:  4472
 C         3.143333         1.768555         0.201436
 C         2.441959         0.760015         1.071410
 C         1.899315         0.844236         2.515481
 O         0.574035         0.457382         2.264362
 C         0.993650        -0.039326         0.944827
 C         0.013598        -0.233898        -0.202316
 C         1.769400        -1.298744         1.359080
 C         2.673244        -0.383679         2.060449
 O         3.996672        -0.642470         2.466935
 H         3.344412         1.336956        -0.828336
 H         2.570250         2.748420         0.194883
 H         4.161464         1.848854         0.643075
 H         2.118397         1.523697         3.332960
 H        -0.553556        -1.203695         0.046418
 H        -0.580561         0.639596        -0.350064
 H         0.724728        -0.429356        -1.015646
 H         0.978772        -2.078397         1.787589
 H         2.178244        -1.716984         0.369899
 H         4.081787        -0.780752         3.423817
