19
Iteration:    88
 C         2.874266         2.078536         0.648803
 C         2.365252         0.795444         1.165220
 C         1.767929         0.656941         2.564719
 O         0.473025         0.161020         2.167381
 C         1.125359        -0.067548         0.862751
 C         0.107114        -0.041057        -0.308295
 C         1.974386        -1.346513         1.160313
 C         2.816786        -0.350740         1.953031
 O         4.020785        -0.737838         2.473081
 H         3.581748         2.526043         1.363066
 H         3.379327         2.055339        -0.344656
 H         2.053547         2.772048         0.569704
 H         1.895237         1.088790         3.503244
 H        -0.236510        -1.031756        -0.543082
 H        -0.787316         0.497039        -0.055359
 H         0.590061         0.406117        -1.161899
 H         1.392430        -2.093031         1.585034
 H         2.591397        -1.754458         0.395349
 H         4.633625        -0.028730         2.589038
