19
Iteration:  3959charge 0 multiplicity 1
 C         3.152608         1.719470         0.263481
 C         2.320001         0.736579         1.027004
 C         1.874508         0.837316         2.523566
 O         0.510326         0.547993         2.236827
 C         1.003563        -0.132371         0.961656
 C         0.037281        -0.130169        -0.193599
 C         1.711394        -1.408301         1.419184
 C         2.827500        -0.426385         1.987167
 O         4.069360        -0.586739         2.448679
 H         2.899100         1.536741        -0.832321
 H         2.895261         2.783563         0.515673
 H         4.275859         1.563487         0.345841
 H         2.168643         1.546540         3.324312
 H        -0.626177        -0.964335        -0.064715
 H        -0.526603         0.798280        -0.442025
 H         0.678517        -0.358459        -0.974802
 H         1.161327        -2.041264         2.181544
 H         2.130698        -1.851565         0.443364
 H         3.915862        -0.813893         3.380695
