19
Iteration:  1486
 C         2.991915         1.801443         0.323908
 C         2.383461         0.726099         1.188202
 C         1.783551         0.677507         2.551664
 O         0.454266         0.432371         2.109680
 C         1.026996        -0.148414         0.896554
 C         0.078522        -0.149826        -0.229056
 C         1.876159        -1.340031         1.193727
 C         2.830745        -0.398551         2.069066
 O         4.105087        -0.554332         2.612950
 H         3.645534         2.495048         0.840784
 H         3.508783         1.446159        -0.638491
 H         2.118237         2.518840         0.052392
 H         2.023187         1.357404         3.452426
 H        -0.856665        -0.558860         0.133058
 H        -0.161336         0.873440        -0.584117
 H         0.553929        -0.679327        -1.044213
 H         1.377308        -2.283145         1.579277
 H         2.350985        -1.573325         0.271039
 H         4.205116         0.256344         3.159335
