19
Iteration:  1721charge 0 multiplicity 1
 C         3.054508         1.834020         0.225646
 C         2.216372         0.823572         1.101245
 C         1.790469         0.760341         2.539744
 O         0.420047         0.335181         2.263564
 C         1.061616        -0.256544         0.841474
 C         0.158969        -0.088423        -0.303117
 C         1.962087        -1.364865         1.440135
 C         2.810775        -0.270547         2.031694
 O         4.041593        -0.647700         2.519214
 H         3.972030         2.156489         0.792867
 H         3.438043         1.277537        -0.681119
 H         2.501166         2.770523        -0.150252
 H         2.052181         1.612896         3.321768
 H        -0.575266        -0.874134        -0.252379
 H        -0.469911         0.826315        -0.204869
 H         0.712413        -0.123223        -1.270730
 H         1.293738        -1.847950         2.129946
 H         2.528549        -1.866045         0.599831
 H         3.868783        -0.264315         3.378759
