19
Iteration:   698
 C         3.028666         1.891032         0.340596
 C         2.346441         0.755485         1.199921
 C         1.729847         0.579946         2.631916
 O         0.419386         0.124169         2.172677
 C         1.110189        -0.108937         0.809263
 C         0.041042         0.100416        -0.227804
 C         2.004671        -1.379814         1.093272
 C         2.781972        -0.357152         1.995307
 O         4.044229        -0.445983         2.702264
 H         3.781171         2.297946         1.027551
 H         3.411296         1.606244        -0.589936
 H         2.308350         2.794199         0.231631
 H         1.995904         1.329072         3.473110
 H        -0.811394        -0.659065        -0.132303
 H        -0.369473         1.113123        -0.328779
 H         0.514374        -0.109711        -1.181307
 H         1.487200        -2.197504         1.567259
 H         2.556330        -1.657743         0.153685
 H         4.559229        -1.218374         2.389284
