19
Iteration:  2462
 C         3.379735         1.703387         0.353473
 C         2.295852         0.877962         1.137515
 C         1.757546         0.766504         2.566974
 O         0.414319         0.295473         2.172535
 C         1.018083        -0.087387         0.893192
 C        -0.050003        -0.198942        -0.218168
 C         1.899653        -1.388247         1.350358
 C         2.709975        -0.315228         2.028935
 O         4.006580        -0.464003         2.405418
 H         4.132297         1.954732         1.205279
 H         4.039542         1.132133        -0.428247
 H         2.899437         2.567336        -0.030238
 H         1.968187         1.471984         3.364200
 H        -0.859456        -0.931078         0.003653
 H        -0.532182         0.771452        -0.498094
 H         0.444107        -0.549924        -1.193259
 H         1.490412        -2.169519         1.898421
 H         2.561437        -1.600996         0.495663
 H         4.348407        -0.316232         3.291962
