19
Iteration:   912charge 0 multiplicity 1
 C         2.884870         1.929047         0.438817
 C         2.320866         0.826960         1.324435
 C         1.638393         0.544106         2.614314
 O         0.370803         0.225966         2.178050
 C         1.110017        -0.232190         0.831168
 C         0.215334         0.102501        -0.318071
 C         2.009675        -1.373507         1.095063
 C         2.783376        -0.401700         2.079626
 O         4.114982        -0.567830         2.544412
 H         3.695976         2.525509         0.929825
 H         3.304119         1.405178        -0.511598
 H         2.207142         2.664410         0.176151
 H         1.811064         1.303483         3.497785
 H        -0.404862        -0.803362        -0.380247
 H        -0.337087         1.002526        -0.076420
 H         0.823425         0.328471        -1.196992
 H         1.576993        -2.173970         1.682874
 H         2.670060        -1.607554         0.239418
 H         4.691079        -0.006317         2.013880
