19
Iteration:    66charge 0 multiplicity 1
 C         3.036883         2.326499         0.620114
 C         2.234481         1.000197         1.120690
 C         1.806739         0.630602         2.494253
 O         0.543102         0.112918         2.233727
 C         1.107745        -0.140950         0.824017
 C         0.034788        -0.184343        -0.292791
 C         2.012223        -1.329269         1.144018
 C         2.792702        -0.383533         1.955464
 O         3.915839        -0.852545         2.540249
 H         3.788475         2.564805         1.392341
 H         3.631002         2.089806        -0.302008
 H         2.507882         3.235919         0.434427
 H         1.868856         1.241907         3.331097
 H        -0.309229        -1.146521        -0.584782
 H        -0.855440         0.259558         0.125851
 H         0.363362         0.397285        -1.149726
 H         1.624534        -2.109429         1.683133
 H         2.525996        -1.723827         0.306528
 H         4.567500        -0.101153         2.698422
