19
Iteration:   227charge 0 multiplicity 1
 C         3.063214         2.200654         0.723758
 C         2.316408         0.853694         1.105313
 C         1.846346         0.589238         2.480111
 O         0.496281         0.159499         2.145536
 C         1.004073        -0.116812         0.898120
 C        -0.056966        -0.165013        -0.301025
 C         1.985619        -1.320978         1.071621
 C         2.809488        -0.364981         1.870881
 O         4.031256        -0.609424         2.669276
 H         3.801420         2.372406         1.549951
 H         3.600683         2.068879        -0.240743
 H         2.391269         2.981235         0.624273
 H         2.120082         1.158538         3.330279
 H        -0.778053        -0.970951        -0.161272
 H        -0.757895         0.727112        -0.256455
 H         0.488234        -0.240486        -1.315763
 H         1.488902        -2.061393         1.768353
 H         2.336038        -1.874221         0.102586
 H         4.617138        -1.150937         2.088273
