19
Iteration:  2369charge 0 multiplicity 1
 C         2.812595         1.802754         0.131744
 C         2.390328         0.767948         1.151155
 C         1.831386         0.779417         2.483960
 O         0.505719         0.430114         2.192133
 C         1.100250        -0.115734         0.843388
 C         0.173718        -0.051005        -0.317286
 C         1.918378        -1.379180         1.435172
 C         2.783304        -0.383383         2.109514
 O         4.051971        -0.659267         2.639038
 H         3.694856         2.362912         0.474632
 H         3.058291         1.479354        -0.891568
 H         1.894168         2.555409         0.172710
 H         1.933526         1.333590         3.405241
 H        -0.602069        -0.781975        -0.366539
 H        -0.209181         0.917752        -0.489698
 H         0.832792        -0.220845        -1.139918
 H         1.413659        -2.039234         2.150395
 H         2.468408        -1.807193         0.649596
 H         3.846946        -1.255549         3.397622
