19
Iteration:  1563charge 0 multiplicity 1
 C         2.967829         1.765528         0.311214
 C         2.370509         0.761352         1.167839
 C         1.831250         0.762793         2.565818
 O         0.500644         0.409333         2.223919
 C         1.058682        -0.105465         0.858149
 C         0.132593        -0.210090        -0.366914
 C         1.876119        -1.359277         1.320953
 C         2.797578        -0.321608         2.061638
 O         3.955975        -0.551669         2.624561
 H         3.944527         2.190353         0.585287
 H         3.195323         1.262222        -0.654930
 H         2.295156         2.692688         0.165244
 H         2.017798         1.387564         3.455566
 H        -0.579461        -1.047887        -0.351769
 H        -0.494363         0.673484        -0.164592
 H         0.662154         0.056120        -1.257203
 H         1.410548        -2.243678         1.826396
 H         2.483386        -1.782755         0.562556
 H         4.707500        -0.501667         1.955345
