19
Iteration:  2694charge 0 multiplicity 1
 C         3.232643         1.712256         0.423830
 C         2.345769         0.840827         1.123724
 C         1.764342         0.788715         2.552590
 O         0.502101         0.415432         2.126570
 C         0.997719        -0.050398         0.903331
 C         0.022284        -0.245930        -0.182956
 C         1.885252        -1.350595         1.276085
 C         2.679170        -0.367805         2.029342
 O         4.057268        -0.536117         2.415933
 H         4.094384         1.874242         0.977061
 H         3.562895         1.435034        -0.654538
 H         2.789024         2.682548         0.114332
 H         1.967882         1.537403         3.399710
 H        -0.632357        -1.075921         0.158576
 H        -0.739682         0.562334        -0.202981
 H         0.493794        -0.490107        -1.109005
 H         1.355294        -1.881115         2.051946
 H         2.375761        -1.828515         0.466474
 H         4.024147        -0.876331         3.307630
