19
Iteration:   974charge 0 multiplicity 1
 C         2.905302         2.046478         0.516167
 C         2.385617         0.831133         1.222703
 C         1.829500         0.623113         2.558217
 O         0.411858         0.223801         2.112834
 C         1.051954        -0.107329         0.901935
 C         0.110421        -0.063380        -0.318762
 C         2.004394        -1.353672         1.138186
 C         2.794910        -0.375491         2.015384
 O         4.039403        -0.582888         2.563582
 H         3.695595         2.528801         1.113609
 H         3.393706         1.707484        -0.435822
 H         2.130166         2.862322         0.372858
 H         2.062127         1.205723         3.560741
 H        -0.517331        -0.927668        -0.199000
 H        -0.639155         0.733019        -0.382379
 H         0.589643        -0.305398        -1.319197
 H         1.848833        -2.400157         1.506594
 H         2.559120        -1.496424         0.246451
 H         4.038452        -1.446302         3.017350
