19
Iteration:  1365
 C         3.023969         1.963545         0.308692
 C         2.262720         0.854669         1.105308
 C         1.796680         0.695680         2.547118
 O         0.474473         0.261409         2.229109
 C         1.078635        -0.215194         0.927751
 C         0.178569        -0.121886        -0.351373
 C         1.830137        -1.378126         1.374931
 C         2.772085        -0.262200         1.972451
 O         4.039845        -0.665033         2.629503
 H         3.814576         2.296970         0.920854
 H         3.272497         1.623627        -0.667818
 H         2.385845         2.862472         0.133364
 H         2.047894         1.357800         3.345450
 H        -0.458969        -0.905681        -0.653098
 H        -0.460620         0.771923        -0.316284
 H         0.903257         0.084511        -1.169146
 H         1.247291        -2.065047         2.041863
 H         2.339113        -1.907761         0.610152
 H         4.729295        -0.183511         2.118744
