19
Iteration:   835
 C         2.956087         2.069215         0.634131
 C         2.371212         0.844956         1.138825
 C         1.838468         0.592125         2.512806
 O         0.478538         0.191268         2.135631
 C         1.080612        -0.084696         0.809778
 C         0.015338        -0.176713        -0.268899
 C         2.011480        -1.285948         1.132547
 C         2.839762        -0.311222         1.977839
 O         3.953641        -0.634072         2.636706
 H         3.819338         2.461086         1.204236
 H         3.297801         1.917490        -0.445212
 H         2.245719         2.806600         0.666451
 H         1.767687         1.329395         3.426011
 H        -0.926739        -0.646551        -0.015398
 H        -0.231149         0.882300        -0.453593
 H         0.481888        -0.622506        -1.208826
 H         1.499232        -2.175054         1.586593
 H         2.586509        -1.545721         0.221011
 H         4.556025        -1.175231         2.130860
