19
Iteration:  2640
 C         3.230240         1.704644         0.377746
 C         2.347806         0.798977         1.037242
 C         1.786651         0.774198         2.524651
 O         0.500095         0.330870         2.176964
 C         1.028188        -0.132426         0.873491
 C        -0.002938        -0.146075        -0.164151
 C         1.869279        -1.332090         1.353993
 C         2.722850        -0.278475         1.986410
 O         4.003253        -0.495272         2.469513
 H         3.922512         1.938170         1.181092
 H         3.931466         1.177604        -0.422462
 H         2.776145         2.697778        -0.049225
 H         2.097275         1.460239         3.388147
 H        -0.751720        -0.982008         0.106874
 H        -0.485030         0.868673        -0.229687
 H         0.267701        -0.387054        -1.207511
 H         1.412498        -2.122625         1.844633
 H         2.564578        -1.705001         0.638052
 H         3.790795        -1.047289         3.236163
