19
Iteration:  1268charge 0 multiplicity 1
 C         3.060521         1.934910         0.382395
 C         2.288657         0.862315         1.089907
 C         1.761570         0.766150         2.504556
 O         0.459622         0.135785         2.195761
 C         1.058160        -0.165752         0.862644
 C         0.101600        -0.031364        -0.256769
 C         1.958527        -1.394135         1.244820
 C         2.722567        -0.331343         2.051507
 O         4.059821        -0.541641         2.660078
 H         3.871732         2.278224         1.047068
 H         3.427395         1.452957        -0.513909
 H         2.299971         2.809685         0.033119
 H         1.752479         1.243717         3.418483
 H        -0.806839        -0.610040        -0.048067
 H        -0.161299         1.035886        -0.472239
 H         0.502439        -0.479609        -1.232737
 H         1.523136        -2.300556         1.843721
 H         2.603549        -1.622032         0.405988
 H         4.621306        -1.080264         1.995988
