19
Iteration:  3430charge 0 multiplicity 1
 C         2.985158         1.831781         0.170548
 C         2.466782         0.812960         1.109106
 C         1.792118         0.835136         2.430545
 O         0.476015         0.435225         2.157285
 C         1.085585        -0.163746         0.880776
 C         0.098818        -0.172854        -0.200426
 C         1.915893        -1.296614         1.464344
 C         2.768301        -0.286497         2.056441
 O         4.006700        -0.748415         2.581673
 H         3.339487         2.641495         0.747843
 H         3.779224         1.309525        -0.405833
 H         2.038371         2.221179        -0.439528
 H         2.055696         1.500815         3.292967
 H        -0.593118        -1.056958        -0.041063
 H        -0.445242         0.657784        -0.328338
 H         0.594443        -0.341588        -1.176273
 H         1.219602        -2.077229         1.972606
 H         2.418903        -1.963445         0.789393
 H         3.890382        -0.673888         3.536340
