19
Iteration:  1705charge 0 multiplicity 1
 C         3.037183         1.808276         0.280423
 C         2.300856         0.808788         1.072797
 C         1.768868         0.849455         2.478546
 O         0.475552         0.270316         2.208565
 C         1.010365        -0.114005         0.989207
 C         0.161967        -0.130001        -0.289752
 C         1.837001        -1.394882         1.410782
 C         2.791556        -0.303448         2.024599
 O         4.083587        -0.573937         2.511615
 H         3.845709         2.235301         0.879051
 H         3.500517         1.348001        -0.578123
 H         2.400338         2.638087        -0.010432
 H         1.804509         1.659790         3.163321
 H        -0.744501        -0.810779        -0.350857
 H        -0.179236         0.876979        -0.551599
 H         0.877130        -0.329393        -1.093349
 H         1.562936        -2.236697         2.098303
 H         2.360084        -1.896859         0.611272
 H         4.098286        -0.989863         3.420031
