19
Iteration:   915
 C         2.905602         1.918873         0.426896
 C         2.336322         0.843686         1.298451
 C         1.650664         0.545411         2.628836
 O         0.393001         0.218823         2.189774
 C         1.086227        -0.236261         0.845940
 C         0.207293         0.110517        -0.336523
 C         2.011069        -1.381648         1.111019
 C         2.786137        -0.368109         2.086511
 O         4.091242        -0.583298         2.533129
 H         3.692028         2.479367         0.971290
 H         3.303659         1.577942        -0.506417
 H         2.084663         2.677802         0.146412
 H         1.704584         1.086019         3.491907
 H        -0.440095        -0.874710        -0.484338
 H        -0.369866         1.043769        -0.125974
 H         0.841732         0.355252        -1.180268
 H         1.648164        -2.213470         1.742461
 H         2.719388        -1.692038         0.233126
 H         4.630495         0.113472         2.129808
