19
Iteration:  1273
 C         3.065372         1.941603         0.357442
 C         2.282335         0.905370         1.124946
 C         1.784263         0.746421         2.477117
 O         0.467034         0.121485         2.200370
 C         1.032349        -0.208552         0.853664
 C         0.101925        -0.040283        -0.243200
 C         1.954361        -1.374967         1.256853
 C         2.759706        -0.326413         2.021473
 O         4.014206        -0.567447         2.684661
 H         3.824775         2.368526         1.049136
 H         3.420244         1.452520        -0.589399
 H         2.468282         2.716547         0.057385
 H         1.892621         1.404911         3.449328
 H        -0.880669        -0.579442        -0.148462
 H        -0.163430         1.008499        -0.375087
 H         0.654479        -0.370327        -1.100314
 H         1.545324        -2.212512         1.739248
 H         2.490297        -1.727181         0.322170
 H         4.646259        -0.725523         1.976631
