19
Iteration:  2431
 C         3.174510         1.581734         0.340386
 C         2.311462         0.819872         1.208596
 C         1.748281         0.786864         2.558257
 O         0.399932         0.319290         2.126371
 C         1.057231        -0.080079         0.871987
 C        -0.000050        -0.080495        -0.206010
 C         1.910771        -1.367701         1.280772
 C         2.793317        -0.354038         2.028692
 O         4.096582        -0.436917         2.489750
 H         3.775104         2.117220         0.997111
 H         3.658764         1.033754        -0.414552
 H         2.612897         2.321053        -0.169385
 H         1.892981         1.608602         3.260892
 H        -0.876598        -0.707941         0.093885
 H        -0.210292         0.990696        -0.388985
 H         0.488589        -0.563830        -1.142441
 H         1.516640        -2.318671         1.731649
 H         2.404400        -1.786555         0.426416
 H         4.211995        -0.554099         3.461608
