19
Iteration:  4973charge 0 multiplicity 1
 C         3.115797         1.731113         0.297890
 C         2.353206         0.728745         1.047063
 C         1.721683         0.835876         2.450873
 O         0.416212         0.435725         2.054043
 C         0.987347        -0.177418         0.918625
 C         0.033432        -0.220585        -0.206020
 C         1.985134        -1.412114         1.509191
 C         2.866724        -0.311152         1.969517
 O         4.031171        -0.461229         2.620889
 H         2.723263         1.765096        -0.733268
 H         3.258617         2.693375         0.704933
 H         4.140517         1.303770         0.110933
 H         1.932330         1.688262         3.123744
 H        -0.804103        -0.852085        -0.055683
 H        -0.285479         0.712474        -0.467583
 H         0.612825        -0.545442        -1.082525
 H         1.525608        -2.069002         2.301482
 H         2.409951        -1.988904         0.570674
 H         3.932906        -0.460363         3.588429
