19
Iteration:  2483charge 0 multiplicity 1
 C         3.240054         1.756033         0.452127
 C         2.320703         0.828943         1.084535
 C         1.829273         0.829523         2.488567
 O         0.464025         0.354784         2.209315
 C         0.985147        -0.129342         0.866790
 C         0.001093        -0.260847        -0.222968
 C         1.801870        -1.301592         1.303137
 C         2.773128        -0.335534         1.943954
 O         4.047827        -0.488751         2.482659
 H         4.148304         1.714523         1.257186
 H         3.708506         1.131627        -0.488557
 H         2.876908         2.703824         0.061095
 H         1.930560         1.366406         3.420991
 H        -0.674409        -1.096495        -0.012437
 H        -0.487744         0.720563        -0.325950
 H         0.514092        -0.511531        -1.189944
 H         1.365577        -2.019337         2.002055
 H         2.381570        -1.893764         0.486138
 H         3.994987        -0.681735         3.426039
