19
Iteration:  3187
 C         2.877307         1.856915         0.094020
 C         2.476217         0.811582         1.129070
 C         1.849042         0.817237         2.504579
 O         0.507780         0.464601         2.135708
 C         1.078162        -0.120272         0.927652
 C         0.173610        -0.192564        -0.224472
 C         1.855922        -1.347857         1.387687
 C         2.768441        -0.404380         2.113654
 O         4.031732        -0.718265         2.626405
 H         3.507011         2.655237         0.619829
 H         3.409058         1.573729        -0.792310
 H         1.908868         2.430432        -0.204006
 H         1.979347         1.499393         3.369460
 H        -0.623326        -1.032511        -0.212854
 H        -0.383684         0.743632        -0.284669
 H         0.843923        -0.111945        -1.188814
 H         1.059363        -1.968754         1.961007
 H         2.370709        -1.910262         0.510706
 H         3.729522        -0.943793         3.553717
