19
Iteration:  1180
 C         2.962940         1.981385         0.440638
 C         2.291907         0.841649         1.131474
 C         1.745014         0.716003         2.574301
 O         0.450767         0.243330         2.179745
 C         1.141781        -0.135886         0.831437
 C         0.116511        -0.090337        -0.324461
 C         1.934468        -1.408537         1.225763
 C         2.816034        -0.329557         2.032926
 O         4.067515        -0.598505         2.614162
 H         3.716835         2.441393         1.075589
 H         3.285640         1.935960        -0.590673
 H         2.205655         2.934235         0.378189
 H         1.834022         1.367190         3.448899
 H        -0.687279        -0.850080        -0.254330
 H        -0.400386         0.908629        -0.432388
 H         0.795559        -0.281101        -1.256979
 H         1.518186        -2.263191         1.916277
 H         2.473681        -1.980233         0.468643
 H         4.230540        -1.502097         2.313809
