19
Iteration:  3720
 C         3.270434         1.631071         0.230210
 C         2.358002         0.784473         1.067655
 C         1.715942         0.819056         2.478375
 O         0.457899         0.337186         2.140621
 C         1.132464        -0.150471         0.912068
 C        -0.068233        -0.098455        -0.120653
 C         1.891976        -1.354732         1.413468
 C         2.697231        -0.342019         2.093868
 O         4.013331        -0.444059         2.462825
 H         3.515897         2.678340         0.556699
 H         4.268819         1.183824         0.249276
 H         3.057021         1.530786        -0.779475
 H         2.054240         1.492891         3.195476
 H        -0.957411        -0.563432         0.112244
 H        -0.282649         0.992568        -0.045600
 H         0.276552        -0.399189        -1.106536
 H         1.265331        -2.049176         1.895763
 H         2.535586        -1.976505         0.681633
 H         4.115099        -0.715196         3.389528
