19
Iteration:  3569charge 0 multiplicity 1
 C         3.062744         1.796616         0.223452
 C         2.390120         0.728388         1.021728
 C         1.874179         0.746694         2.487468
 O         0.489545         0.439097         2.142557
 C         1.045109        -0.028741         0.945353
 C         0.019316        -0.267779        -0.296083
 C         1.798660        -1.372752         1.419638
 C         2.784076        -0.357128         2.030368
 O         4.094687        -0.519267         2.678004
 H         4.185748         1.889102         0.143944
 H         2.728194         1.511455        -0.770034
 H         2.760601         2.757826         0.458207
 H         2.049469         1.385544         3.322994
 H        -0.625263        -1.153673        -0.170712
 H        -0.568553         0.659099        -0.427078
 H         0.625365        -0.159473        -1.264937
 H         1.276490        -1.961014         2.182276
 H         2.175493        -2.009248         0.553290
 H         3.728573        -0.648750         3.571114
