19
Iteration:  1174
 C         2.960234         2.030260         0.413173
 C         2.339108         0.809647         1.135636
 C         1.726236         0.651715         2.571276
 O         0.385127         0.269046         2.162439
 C         1.102073        -0.120177         0.800019
 C         0.151357        -0.078058        -0.271570
 C         1.965604        -1.422937         1.209567
 C         2.812116        -0.332124         2.056856
 O         4.100252        -0.597585         2.606822
 H         3.768745         2.497902         1.014460
 H         3.241348         1.847217        -0.652624
 H         2.210425         2.734077         0.339762
 H         1.891322         1.382981         3.370149
 H        -0.545286        -0.912606        -0.152996
 H        -0.381496         0.865264        -0.192964
 H         0.608939        -0.154837        -1.227472
 H         1.372708        -2.068508         1.809741
 H         2.569758        -1.916054         0.420695
 H         4.185443        -1.553879         2.695182
