19
Iteration:  2017
 C         3.068163         1.764356         0.275157
 C         2.317127         0.753072         1.215082
 C         1.638023         0.780835         2.540223
 O         0.402273         0.390906         2.132041
 C         1.051180        -0.077744         0.950004
 C         0.130869        -0.108291        -0.270326
 C         1.930807        -1.432407         1.341935
 C         2.793325        -0.378321         2.073486
 O         4.147390        -0.447550         2.497232
 H         3.982561         2.047729         0.793342
 H         3.358839         1.200938        -0.579286
 H         2.529451         2.680419        -0.133380
 H         1.769784         1.261548         3.551548
 H        -0.590489        -0.937873        -0.229841
 H        -0.381961         0.866796        -0.479093
 H         0.742296        -0.450110        -1.121801
 H         1.202305        -2.166587         1.736614
 H         2.463938        -2.000878         0.578004
 H         4.340885        -1.274250         3.020329
