19
Iteration:  1286
 C         3.032387         1.929393         0.316066
 C         2.285065         0.859989         1.113585
 C         1.777306         0.633448         2.541422
 O         0.500812         0.185833         2.226542
 C         1.037066        -0.183488         0.942697
 C         0.092111        -0.059700        -0.271676
 C         1.981490        -1.343161         1.209638
 C         2.835611        -0.305762         1.915859
 O         3.910233        -0.598476         2.700723
 H         3.866556         2.323949         0.874566
 H         3.639064         1.515305        -0.521277
 H         2.447155         2.697188        -0.017802
 H         2.016853         1.323003         3.375056
 H        -0.719685        -0.767613        -0.325878
 H        -0.232659         0.952491        -0.200148
 H         0.589300        -0.138501        -1.229029
 H         1.491353        -1.985144         1.871935
 H         2.470366        -1.799724         0.324575
 H         4.720517         0.026263         2.519908
