19
Iteration:  1616
 C         3.087623         1.784135         0.268763
 C         2.274061         0.848597         1.086677
 C         1.826477         0.844661         2.457783
 O         0.530073         0.262793         2.192987
 C         1.011745        -0.128290         0.855056
 C         0.033993        -0.128209        -0.241297
 C         1.961378        -1.360163         1.368633
 C         2.801567        -0.289567         2.060558
 O         3.972891        -0.629705         2.571597
 H         3.893210         2.148254         0.821613
 H         3.499822         1.508016        -0.766369
 H         2.462615         2.622295         0.104179
 H         1.810756         1.249734         3.504729
 H        -0.884713        -0.670230         0.045778
 H        -0.098714         0.958205        -0.521669
 H         0.518042        -0.640117        -1.082902
 H         1.617073        -2.243465         1.989944
 H         2.597695        -1.882710         0.663524
 H         3.940550        -0.110617         3.439829
