19
Iteration:    24
 C         2.945826         2.093832         0.631156
 C         2.379460         0.862538         1.257719
 C         1.760513         0.570693         2.611034
 O         0.476099         0.281968         2.110520
 C         1.129349        -0.015389         0.799387
 C         0.020361        -0.177925        -0.191587
 C         2.078613        -1.319208         0.975497
 C         2.758848        -0.468317         1.995266
 O         4.028265        -0.682192         2.491429
 H         3.708931         2.533294         1.243454
 H         3.394277         1.848523        -0.282440
 H         2.160592         2.896398         0.413814
 H         1.865970         1.061679         3.521748
 H        -0.337982        -1.226244        -0.154661
 H        -0.771681         0.496736         0.112585
 H         0.249415         0.008252        -1.219534
 H         1.452360        -2.244502         1.048737
 H         2.643959        -1.367550         0.068427
 H         4.061147        -0.241260         3.379182
