19
Iteration:  1207charge 0 multiplicity 1
 C         3.015976         1.989929         0.499103
 C         2.271130         0.829049         1.100653
 C         1.818617         0.623023         2.548541
 O         0.412512         0.228640         2.265097
 C         1.041040        -0.113785         0.890656
 C         0.209173        -0.171028        -0.352494
 C         1.892290        -1.303463         1.236781
 C         2.785298        -0.326495         1.975425
 O         4.000751        -0.632891         2.556571
 H         3.880837         2.398570         1.050614
 H         3.400429         1.798873        -0.532611
 H         2.413433         2.800105         0.376332
 H         2.070853         1.373536         3.355222
 H        -0.789512        -0.609707        -0.214090
 H         0.038800         0.834508        -0.744792
 H         0.794724        -0.708701        -1.050939
 H         1.495712        -2.063530         1.841419
 H         2.453874        -1.844754         0.462648
 H         4.583968         0.076666         2.242414
