19
Iteration:  4713
 C         3.232148         1.539406         0.153292
 C         2.279256         0.840188         1.103927
 C         1.750907         0.738527         2.613360
 O         0.405237         0.276021         2.244810
 C         1.037557        -0.055814         0.896430
 C         0.123968        -0.058019        -0.223726
 C         1.855351        -1.351200         1.404511
 C         2.711006        -0.280459         2.068380
 O         4.093250        -0.418036         2.436290
 H         3.074822         2.646746         0.389979
 H         4.269055         1.094328         0.392892
 H         2.960262         1.181987        -0.860657
 H         1.866113         1.486803         3.384742
 H        -0.881675        -0.606209         0.000249
 H        -0.177626         0.947694        -0.524398
 H         0.484930        -0.555654        -1.196555
 H         1.298785        -2.047495         2.069490
 H         2.374879        -1.876277         0.568554
 H         4.237132        -0.536668         3.392963
