19
Iteration:  1561charge 0 multiplicity 1
 C         2.970719         1.781609         0.310268
 C         2.359119         0.782319         1.156016
 C         1.847441         0.753407         2.562671
 O         0.487410         0.402409         2.236749
 C         1.045700        -0.115431         0.834157
 C         0.139060        -0.202637        -0.357012
 C         1.889306        -1.370179         1.338775
 C         2.784429        -0.324733         2.051843
 O         3.966276        -0.553300         2.626574
 H         3.903690         2.179805         0.592675
 H         3.223684         1.239876        -0.684006
 H         2.358720         2.644924         0.172903
 H         1.970896         1.524552         3.454613
 H        -0.547366        -1.035109        -0.347918
 H        -0.523588         0.692399        -0.172981
 H         0.745727         0.079943        -1.239163
 H         1.381962        -2.225599         1.850493
 H         2.493859        -1.790020         0.559149
 H         4.667051        -0.621079         1.962458
