19
Iteration:  3051charge 0 multiplicity 1
 C         3.256939         1.744616         0.323797
 C         2.349799         0.845741         1.114031
 C         1.846506         0.759064         2.605550
 O         0.412985         0.428762         2.157579
 C         1.051742        -0.059372         0.888611
 C         0.000278        -0.290630        -0.168534
 C         1.858284        -1.345638         1.278227
 C         2.749229        -0.330770         1.987820
 O         3.994743        -0.510825         2.475772
 H         4.062814         2.021767         1.111430
 H         3.843878         1.069595        -0.460913
 H         2.924535         2.647321        -0.248760
 H         1.872663         1.515296         3.371505
 H        -0.597785        -1.203410         0.039471
 H        -0.669234         0.610535        -0.433443
 H         0.599905        -0.492716        -1.047788
 H         1.335365        -1.989221         2.117289
 H         2.296687        -1.975791         0.391083
 H         3.817743        -0.828508         3.376500
