19
Iteration:  3255charge 0 multiplicity 1
 C         3.268032         1.671770         0.321014
 C         2.293613         0.812492         1.084610
 C         1.726090         0.825890         2.489076
 O         0.439764         0.332583         2.140380
 C         1.095992        -0.136033         0.855950
 C        -0.014175        -0.129648        -0.183874
 C         1.905279        -1.399251         1.379311
 C         2.752363        -0.292086         2.106786
 O         4.044343        -0.494452         2.477186
 H         3.951619         2.033076         1.039738
 H         3.817219         1.263152        -0.567159
 H         2.535702         2.488597        -0.128230
 H         1.883649         1.534267         3.281632
 H        -0.951667        -0.776035         0.101931
 H        -0.447567         0.876722        -0.470802
 H         0.415231        -0.576698        -1.203506
 H         1.387864        -2.103761         2.147080
 H         2.463320        -1.930184         0.555136
 H         4.238656        -0.526436         3.432628
