19
Iteration:  2181charge 0 multiplicity 1
 C         2.912190         1.732377         0.267960
 C         2.409905         0.735377         1.176649
 C         1.768087         0.842449         2.522496
 O         0.436837         0.371442         2.070807
 C         1.090047        -0.068558         0.938850
 C         0.182516        -0.062238        -0.312402
 C         1.845989        -1.411676         1.437182
 C         2.724145        -0.375273         2.064064
 O         4.165903        -0.537581         2.548436
 H         3.787306         2.253940         0.549937
 H         3.030227         1.354906        -0.742174
 H         1.964697         2.426066         0.132096
 H         1.858896         1.458530         3.513642
 H        -0.329473        -0.986994        -0.322454
 H        -0.429703         0.800409        -0.335069
 H         0.744497        -0.204777        -1.225863
 H         1.382236        -2.148794         2.066067
 H         2.470815        -1.916465         0.762313
 H         4.055290        -1.154908         3.263724
