19
Iteration:  2182charge 0 multiplicity 1
 C         2.914187         1.730592         0.268402
 C         2.400912         0.740851         1.181208
 C         1.767327         0.828669         2.522985
 O         0.433599         0.371292         2.067760
 C         1.085197        -0.071498         0.927474
 C         0.182730        -0.056373        -0.307111
 C         1.857489        -1.412043         1.437415
 C         2.729680        -0.376407         2.069933
 O         4.162775        -0.530722         2.548005
 H         3.780683         2.225664         0.543768
 H         3.059655         1.329163        -0.748187
 H         1.995910         2.399401         0.142543
 H         1.902892         1.510040         3.490541
 H        -0.352667        -0.986659        -0.293040
 H        -0.433080         0.800404        -0.332217
 H         0.759037        -0.191699        -1.215200
 H         1.372137        -2.116145         2.082792
 H         2.440368        -1.910860         0.734324
 H         4.055572        -1.180606         3.246478
