19
Iteration:  3396charge 0 multiplicity 1
 C         2.865200         1.857623         0.169804
 C         2.409013         0.810121         1.014899
 C         1.934103         0.735652         2.409001
 O         0.519944         0.529044         2.242832
 C         0.996326        -0.053433         0.936116
 C         0.163819        -0.259065        -0.294269
 C         1.812685        -1.367905         1.349180
 C         2.811151        -0.370854         2.063662
 O         4.030170        -0.735046         2.740932
 H         3.588094         2.573377         0.646309
 H         3.532347         1.493244        -0.653645
 H         2.049186         2.482976        -0.419936
 H         2.172746         1.381177         3.329365
 H        -0.313464        -1.256065        -0.201125
 H        -0.537458         0.494526        -0.444520
 H         0.947227        -0.275001        -1.100536
 H         1.028334        -1.895090         2.002351
 H         2.307093        -1.712561         0.438790
 H         3.887992        -0.291461         3.598412
