19
Iteration:  1397
 C         2.958751         1.843100         0.414067
 C         2.334109         0.806475         1.144617
 C         1.799364         0.607846         2.627877
 O         0.443239         0.419325         2.124752
 C         1.074549        -0.124795         0.888220
 C         0.142169        -0.136398        -0.272948
 C         1.900582        -1.386635         1.271031
 C         2.780350        -0.413907         1.989722
 O         4.071460        -0.525681         2.532396
 H         3.882923         2.177560         0.825615
 H         3.237071         1.440565        -0.608780
 H         2.232314         2.658553         0.354902
 H         2.099536         1.463952         3.214901
 H        -0.670379        -0.770214        -0.047033
 H        -0.227186         0.845851        -0.604551
 H         0.663546        -0.649763        -1.111598
 H         1.343329        -2.211085         1.753420
 H         2.403753        -1.726858         0.400415
 H         4.288210         0.049137         3.267125
