19
Iteration:  3475charge 0 multiplicity 1
 C         3.198438         1.613861         0.255620
 C         2.353626         0.688097         1.055774
 C         1.809304         0.765843         2.562660
 O         0.459196         0.382980         2.198065
 C         1.019769        -0.095236         0.883677
 C         0.076193        -0.107957        -0.207131
 C         1.887349        -1.398956         1.343258
 C         2.732616        -0.390041         2.037268
 O         3.984946        -0.308557         2.525530
 H         3.887918         2.140280         0.832787
 H         3.733888         1.065193        -0.578397
 H         2.460003         2.483058        -0.136573
 H         1.876350         1.284787         3.483610
 H        -0.950944        -0.422217         0.095418
 H         0.107244         0.845621        -0.520054
 H         0.491965        -0.600187        -1.067015
 H         1.320478        -2.102965         2.089819
 H         2.192411        -1.992955         0.476970
 H         4.212083        -0.861680         3.279585
