19
Iteration:  2967
 C         2.869154         1.776638         0.126271
 C         2.344013         0.775360         1.080943
 C         1.866004         0.730344         2.498598
 O         0.487348         0.347420         2.222240
 C         1.064082        -0.098742         0.867809
 C         0.196446         0.041559        -0.311533
 C         1.793877        -1.409931         1.435451
 C         2.810650        -0.399909         2.050529
 O         4.107564        -0.616650         2.693007
 H         3.819462         2.417883         0.309108
 H         3.106970         1.169681        -0.869435
 H         2.070733         2.509833        -0.085807
 H         1.895447         1.596210         3.277636
 H        -0.771021        -0.441205        -0.148833
 H         0.185447         1.134176        -0.528741
 H         0.702875        -0.398001        -1.133265
 H         1.285849        -2.074654         1.987372
 H         2.307926        -1.867798         0.643896
 H         3.920139        -0.800234         3.643390
