19
Iteration:  2249charge 0 multiplicity 1
 C         3.221318         1.640268         0.305291
 C         2.244048         0.867800         1.123728
 C         1.735515         0.733828         2.552275
 O         0.434285         0.327741         2.157719
 C         1.092547        -0.148993         0.834961
 C        -0.001987        -0.142610        -0.222510
 C         1.899135        -1.368909         1.238121
 C         2.769519        -0.271463         2.090961
 O         4.093043        -0.434135         2.565082
 H         3.925362         2.153058         0.944739
 H         3.787071         1.159276        -0.526863
 H         2.697511         2.444509        -0.182109
 H         2.055658         1.110494         3.561510
 H        -0.796603        -0.681057         0.278850
 H        -0.291172         0.833462        -0.517445
 H         0.153899        -0.740200        -1.089823
 H         1.396640        -2.204140         1.635505
 H         2.473932        -1.656395         0.405530
 H         4.005225        -0.501945         3.557758
