19
Iteration:  1799
 C         3.042067         1.890408         0.231524
 C         2.328165         0.859303         1.111898
 C         1.828470         0.768586         2.499288
 O         0.444692         0.236564         2.206754
 C         1.039200        -0.153283         0.882685
 C         0.117785        -0.173555        -0.233472
 C         1.892510        -1.362135         1.343668
 C         2.772100        -0.305634         2.022241
 O         4.026079        -0.524448         2.658869
 H         3.952255         2.206205         0.711182
 H         3.403300         1.300916        -0.691959
 H         2.531286         2.811863         0.008821
 H         2.168698         1.448873         3.178487
 H        -0.665566        -0.871856        -0.305464
 H        -0.313212         0.860938        -0.176550
 H         0.717803        -0.020689        -1.125245
 H         1.226399        -2.031804         1.890615
 H         2.464399        -1.991816         0.656402
 H         4.102530        -1.461996         2.428759
