19
Iteration:  2673
 C         3.285790         1.740134         0.433912
 C         2.426981         0.843824         1.170254
 C         1.836784         0.702242         2.506420
 O         0.376271         0.482958         2.177880
 C         0.988243        -0.104206         0.864372
 C        -0.078498        -0.303130        -0.233413
 C         1.766838        -1.325467         1.301571
 C         2.754262        -0.364945         1.981483
 O         4.121312        -0.441277         2.467039
 H         4.128873         1.856668         1.063554
 H         3.751279         1.133122        -0.474233
 H         3.026186         2.773557        -0.045101
 H         2.046433         1.225407         3.496268
 H        -0.713868        -1.197696         0.113292
 H        -0.844198         0.527906        -0.245233
 H         0.424485        -0.536762        -1.171920
 H         1.312250        -2.137760         1.713914
 H         2.413293        -1.454269         0.499385
 H         4.092975        -1.176130         3.141228
