19
Iteration:  4413
 C         2.869077         1.799566         0.095807
 C         2.396999         0.685630         1.092325
 C         1.942971         0.802173         2.476830
 O         0.556570         0.475902         2.200838
 C         1.062565        -0.093602         0.874148
 C         0.119013         0.023483        -0.224130
 C         1.743331        -1.435928         1.485249
 C         2.762240        -0.447746         2.109445
 O         4.110334        -0.661829         2.581927
 H         3.767315         1.546312        -0.423103
 H         2.169125         2.082256        -0.641185
 H         3.073605         2.730600         0.763953
 H         2.379448         1.534174         3.174988
 H        -0.808277        -0.244356         0.118409
 H         0.028574         1.112078        -0.391517
 H         0.310125        -0.428630        -1.181933
 H         0.940117        -2.038102         1.996965
 H         2.067456        -2.021898         0.611451
 H         4.025899        -1.374799         3.244503
