19
Iteration:  4141charge 0 multiplicity 1
 C         3.288775         1.655361         0.296804
 C         2.337851         0.824470         1.104907
 C         1.909980         0.757489         2.519110
 O         0.432222         0.507519         2.220607
 C         0.980911        -0.033446         1.002955
 C        -0.064665        -0.097367        -0.102748
 C         1.751937        -1.405165         1.338565
 C         2.828322        -0.384734         1.992898
 O         4.072103        -0.603685         2.355399
 H         4.164650         2.032289         0.825295
 H         3.681818         1.035249        -0.488973
 H         2.771147         2.553594        -0.269143
 H         2.110479         1.514051         3.264988
 H        -0.878072        -0.933581         0.006296
 H        -0.693054         0.854944        -0.271785
 H         0.376874        -0.345471        -1.166669
 H         1.231413        -1.917751         2.108820
 H         1.943790        -1.990727         0.487328
 H         4.193538        -1.127563         3.164909
