19
Iteration:  1084charge 0 multiplicity 1
 C         2.955266         1.869657         0.471826
 C         2.273009         0.867103         1.239761
 C         1.683863         0.597901         2.616058
 O         0.412653         0.199154         2.148332
 C         1.161332        -0.076690         0.824206
 C         0.169189        -0.008182        -0.336246
 C         2.004594        -1.349755         1.228052
 C         2.723674        -0.381125         2.050314
 O         4.145507        -0.498603         2.488581
 H         3.757489         2.432137         0.923443
 H         3.208039         1.511194        -0.547403
 H         2.132755         2.533968         0.200205
 H         1.949356         1.060361         3.571937
 H        -0.622315        -0.716189        -0.106486
 H        -0.257989         1.013742        -0.207736
 H         0.472908        -0.173751        -1.431456
 H         1.510658        -2.209786         1.808190
 H         2.549084        -1.572110         0.326179
 H         4.089030        -1.388395         2.854744
