19
Iteration:  2685
 C         3.295911         1.698202         0.417719
 C         2.302340         0.798296         1.120598
 C         1.787179         0.736862         2.621947
 O         0.471539         0.484019         2.130381
 C         1.016791        -0.044708         0.859249
 C        -0.062810        -0.305526        -0.198153
 C         1.868762        -1.308838         1.283227
 C         2.785056        -0.327953         2.020397
 O         4.056660        -0.493699         2.428094
 H         4.120530         1.930747         1.064115
 H         3.682581         1.241976        -0.582175
 H         2.661906         2.702888         0.294768
 H         1.934841         1.291304         3.541543
 H        -0.632137        -1.283727         0.058431
 H        -0.715626         0.609826        -0.385309
 H         0.356907        -0.472001        -1.211092
 H         1.318940        -2.020277         1.818842
 H         2.185526        -1.846647         0.436859
 H         4.085390        -1.014510         3.231127
