19
Iteration:  3757
 C         3.130593         1.753289         0.238128
 C         2.352880         0.734405         1.111929
 C         1.907467         0.773465         2.467503
 O         0.464825         0.527695         2.256363
 C         0.933073        -0.048779         0.922226
 C         0.041956        -0.268379        -0.250770
 C         1.818600        -1.266953         1.365536
 C         2.812875        -0.402321         2.007628
 O         4.069918        -0.594377         2.558325
 H         2.913809         2.844711         0.180181
 H         4.192940         1.438569         0.447178
 H         2.902917         1.368115        -0.844282
 H         1.973634         1.480361         3.380270
 H        -0.590765        -1.169820        -0.145307
 H        -0.520596         0.572265        -0.482396
 H         0.714099        -0.437415        -1.111288
 H         1.043520        -1.995879         1.897160
 H         2.304337        -1.711047         0.508993
 H         3.910853        -0.683790         3.501252
