19
Iteration:   238charge 0 multiplicity 1
 C         3.037094         2.143530         0.736726
 C         2.286007         0.990763         1.107507
 C         1.801085         0.677858         2.481113
 O         0.534901         0.152662         2.166305
 C         0.982721        -0.185702         0.798553
 C        -0.035228        -0.195043        -0.263132
 C         1.919018        -1.336833         1.192123
 C         2.924917        -0.314762         1.831979
 O         4.006152        -0.700993         2.612866
 H         3.745931         2.355763         1.580518
 H         3.668015         2.054900        -0.178125
 H         2.483562         3.015339         0.675379
 H         1.740636         1.149004         3.430867
 H        -0.628126        -1.075053        -0.468989
 H        -0.536949         0.806907        -0.245067
 H         0.615833        -0.067564        -1.209981
 H         1.590433        -2.205605         1.822553
 H         2.313360        -1.699302         0.140845
 H         4.726986        -1.001552         2.077172
