19
Iteration:  4445charge 0 multiplicity 1
 C         2.969254         1.814415         0.171824
 C         2.401333         0.794831         1.102660
 C         1.911830         0.822000         2.497799
 O         0.476828         0.549258         2.165387
 C         1.021322        -0.096195         0.928467
 C         0.067768        -0.128242        -0.223046
 C         1.844695        -1.339836         1.503267
 C         2.804376        -0.407624         1.976729
 O         4.062025        -0.800818         2.522104
 H         3.603121         1.332907        -0.550317
 H         2.164955         2.393375        -0.233160
 H         3.549008         2.478420         0.866564
 H         2.279879         1.592134         3.197055
 H        -0.689634        -0.799728         0.042863
 H        -0.383136         0.886008        -0.191203
 H         0.674332        -0.418540        -1.089075
 H         1.337337        -1.989284         2.179826
 H         2.105086        -1.856123         0.592225
 H         3.862896        -1.178424         3.397788
