19
Iteration:  1570charge 0 multiplicity 1
 C         2.972708         1.760913         0.297095
 C         2.386709         0.738158         1.190177
 C         1.790491         0.777054         2.556812
 O         0.519175         0.420422         2.166292
 C         1.100744        -0.105155         0.937629
 C         0.106772        -0.193940        -0.342647
 C         1.858367        -1.329051         1.284072
 C         2.766425        -0.355261         2.071469
 O         3.990766        -0.552027         2.638288
 H         3.911185         2.120325         0.650816
 H         3.090332         1.356082        -0.773360
 H         2.291084         2.513587         0.163420
 H         2.172981         1.108290         3.612504
 H        -0.483715        -1.108062        -0.373814
 H        -0.575954         0.697189        -0.243402
 H         0.515621        -0.149566        -1.414792
 H         1.392440        -2.167120         1.815139
 H         2.442006        -1.702728         0.399316
 H         4.663898        -0.145749         2.078362
