19
Iteration:  4047charge 0 multiplicity 1
 C         3.016155         1.680531         0.094561
 C         2.369567         0.670176         1.043373
 C         1.968539         0.843412         2.516580
 O         0.567319         0.422699         2.247211
 C         1.023090        -0.099091         0.904717
 C         0.028342         0.101197        -0.154590
 C         1.821428        -1.426292         1.364185
 C         2.763826        -0.456812         2.059137
 O         3.999279        -0.561859         2.565972
 H         4.012224         1.348629        -0.347626
 H         2.405217         1.982599        -0.802629
 H         3.133133         2.567342         0.668685
 H         2.182052         1.316582         3.466544
 H        -0.899462        -0.293682         0.119595
 H        -0.193870         1.135434        -0.411757
 H         0.312584        -0.492848        -0.929318
 H         1.249760        -2.112338         2.111159
 H         2.237193        -2.042092         0.458813
 H         3.977701        -1.010580         3.429918
