19
Iteration:  2420
 C         3.111127         1.692507         0.252231
 C         2.342485         0.732950         1.161243
 C         1.834808         0.774008         2.581836
 O         0.416060         0.317793         2.174552
 C         1.001636        -0.075012         0.906460
 C         0.054184        -0.026350        -0.281549
 C         1.956044        -1.432599         1.310850
 C         2.748790        -0.373327         2.064706
 O         4.057048        -0.422042         2.526482
 H         3.909626         2.166387         0.706292
 H         3.654860         1.058472        -0.387499
 H         2.531476         2.402967        -0.278317
 H         1.897950         1.436810         3.451826
 H        -0.846822        -0.577644         0.088756
 H        -0.379420         0.957445        -0.569982
 H         0.465987        -0.528671        -1.236194
 H         1.564270        -2.284672         1.972464
 H         2.542630        -1.661570         0.446564
 H         3.867319        -0.875061         3.349969
