19
Iteration:  2614charge 0 multiplicity 1
 C         3.073840         1.773427         0.194958
 C         2.376217         0.802388         1.125994
 C         1.734964         0.799449         2.537518
 O         0.469222         0.332111         2.161737
 C         1.053900        -0.142744         0.887918
 C         0.009194        -0.013124        -0.211042
 C         1.858362        -1.401391         1.353946
 C         2.785807        -0.370474         2.055268
 O         4.140333        -0.605552         2.566630
 H         3.865713         2.215513         0.878954
 H         3.609361         1.221254        -0.545559
 H         2.504472         2.557328        -0.073812
 H         1.782591         1.493067         3.350271
 H        -0.860541        -0.550701        -0.117827
 H        -0.224105         0.989398        -0.447555
 H         0.472869        -0.404275        -1.113100
 H         1.303344        -2.288372         1.734945
 H         2.427984        -1.934999         0.564737
 H         4.028652        -0.369314         3.489247
