19
Iteration:  2261charge 0 multiplicity 1
 C         3.207026         1.736193         0.315664
 C         2.317355         0.846610         1.151605
 C         1.757037         0.750897         2.548251
 O         0.409471         0.359174         2.062562
 C         1.045030        -0.094950         0.880856
 C        -0.084047        -0.151094        -0.205318
 C         2.038706        -1.392177         1.289188
 C         2.741515        -0.388304         2.097035
 O         4.071528        -0.487921         2.541606
 H         4.025229         2.136729         0.966470
 H         3.664047         0.993066        -0.409956
 H         2.731950         2.498123        -0.185758
 H         1.677936         1.343999         3.473166
 H        -0.960600        -0.640884         0.267758
 H        -0.480003         0.811809        -0.558737
 H         0.305101        -0.719696        -1.032308
 H         1.594108        -2.221394         1.784456
 H         2.577441        -1.737224         0.394606
 H         4.262624        -0.159915         3.410562
