19
Iteration:  1976charge 0 multiplicity 1
 C         2.950772         1.836784         0.256045
 C         2.359364         0.824625         1.101801
 C         1.784563         0.847339         2.490737
 O         0.475180         0.304686         2.246561
 C         1.056751        -0.184072         0.880506
 C         0.171212        -0.068848        -0.310863
 C         1.835308        -1.428991         1.358000
 C         2.765172        -0.317863         2.049440
 O         4.098271        -0.563983         2.578411
 H         3.871301         2.040534         0.746600
 H         3.348754         1.523037        -0.821714
 H         2.315172         2.652727         0.094041
 H         1.891700         1.499790         3.489083
 H        -0.200555        -1.100155        -0.553040
 H        -0.612054         0.679874        -0.431649
 H         0.965038        -0.099306        -1.096070
 H         1.313325        -2.054843         2.169921
 H         2.346943        -2.069888         0.652017
 H         3.876084        -1.099582         3.354438
