19
Iteration:  1833
 C         3.004370         1.827447         0.409414
 C         2.330805         0.775813         1.146289
 C         1.806536         0.731994         2.526473
 O         0.429333         0.358651         2.113484
 C         1.082937        -0.130664         0.937398
 C         0.086509        -0.151097        -0.298625
 C         1.925078        -1.360926         1.358138
 C         2.794877        -0.340291         2.063387
 O         4.080450        -0.542144         2.466898
 H         3.835954         2.326776         0.840737
 H         3.323447         1.392276        -0.661585
 H         2.260875         2.464931         0.011997
 H         2.001723         1.457821         3.237705
 H        -0.878477        -0.619982        -0.227324
 H        -0.108645         0.901288        -0.509198
 H         0.507126        -0.708037        -1.099743
 H         1.361504        -2.045287         1.999252
 H         2.588813        -1.831745         0.669586
 H         3.947455        -0.701841         3.449552
