19
Iteration:  1692
 C         3.004175         1.784677         0.304567
 C         2.371113         0.695662         1.128070
 C         1.774839         0.836525         2.502270
 O         0.442389         0.382101         2.214401
 C         1.035414        -0.173803         0.899007
 C         0.173014        -0.141067        -0.282986
 C         1.856381        -1.349938         1.354430
 C         2.755514        -0.350511         2.077187
 O         4.104982        -0.465228         2.502930
 H         3.718583         2.238711         0.925567
 H         3.544323         1.472614        -0.663679
 H         2.299311         2.486878         0.018909
 H         2.081954         1.147204         3.448792
 H        -0.667080        -0.816608        -0.063806
 H        -0.129804         0.882640        -0.597256
 H         0.682724        -0.710531        -1.057906
 H         1.102715        -1.998499         1.893289
 H         2.264569        -1.815095         0.482690
 H         4.068651        -1.239756         3.056249
