19
Iteration:  3778charge 0 multiplicity 1
 C         3.036606         1.796456         0.130013
 C         2.372756         0.765208         1.139897
 C         1.867471         0.841688         2.551713
 O         0.533278         0.530468         2.177744
 C         1.090933        -0.029646         0.955353
 C         0.127376        -0.247848        -0.219550
 C         1.766225        -1.392036         1.419098
 C         2.744027        -0.413973         2.004941
 O         4.018317        -0.650216         2.532068
 H         2.303341         2.642087         0.147716
 H         3.994337         2.027597         0.633171
 H         3.107518         1.501749        -0.929622
 H         2.303031         1.384819         3.478681
 H        -0.508819        -1.037486        -0.148567
 H        -0.406659         0.551794        -0.498324
 H         0.618699        -0.395401        -1.184267
 H         1.037173        -1.947120         2.089226
 H         2.100143        -1.846947         0.498667
 H         3.933754        -0.870381         3.488391
