19
Iteration:  4275
 C         3.164744         1.759376         0.222503
 C         2.377812         0.741107         1.079601
 C         1.910289         0.804354         2.512861
 O         0.533843         0.556759         2.209741
 C         1.041816        -0.123026         0.968525
 C        -0.009951        -0.107385        -0.144825
 C         1.744826        -1.376813         1.397987
 C         2.716605        -0.443821         2.010082
 O         4.023913        -0.634972         2.369146
 H         3.983875         1.991699         0.965890
 H         3.701942         1.479771        -0.727485
 H         2.571481         2.740253         0.156195
 H         2.264898         1.304914         3.412521
 H        -0.797391        -0.951227         0.137372
 H        -0.465196         0.958299         0.038729
 H         0.424270        -0.162941        -1.155113
 H         1.296713        -1.947519         2.180554
 H         2.122712        -2.100954         0.683976
 H         3.987479        -1.173721         3.182910
