19
Iteration:   733charge 0 multiplicity 1
 C         2.855213         1.834563         0.386664
 C         2.307378         0.824637         1.315118
 C         1.678116         0.594798         2.695975
 O         0.407544         0.230511         2.181996
 C         1.098469        -0.079838         0.865680
 C         0.240300         0.073392        -0.314632
 C         2.003842        -1.357074         1.146689
 C         2.837773        -0.413416         1.996960
 O         4.102691        -0.504984         2.470823
 H         3.627700         2.364374         0.899507
 H         3.307727         1.426026        -0.517121
 H         2.104421         2.559030         0.051200
 H         1.919477         1.155192         3.558131
 H        -0.509369        -0.719005        -0.351455
 H        -0.293205         1.039717        -0.356801
 H         0.791164        -0.012297        -1.243877
 H         1.466636        -2.194865         1.601145
 H         2.678913        -1.772329         0.412837
 H         3.858548        -1.252458         3.103637
