19
Iteration:  1936charge 0 multiplicity 1
 C         2.928298         1.786178         0.281818
 C         2.357127         0.799246         1.142090
 C         1.809499         0.778030         2.563616
 O         0.536104         0.422838         2.142515
 C         1.085752        -0.103384         0.853391
 C         0.094858        -0.158498        -0.248223
 C         1.936701        -1.453836         1.211793
 C         2.789677        -0.330476         1.991127
 O         3.998565        -0.606594         2.679007
 H         3.736139         2.428099         0.730059
 H         3.252363         1.459302        -0.728729
 H         2.069208         2.509902         0.278716
 H         2.177997         1.131643         3.578956
 H        -0.631983        -0.940007         0.051537
 H        -0.489947         0.730155        -0.391093
 H         0.622391        -0.306552        -1.203718
 H         1.396291        -2.107703         1.864565
 H         2.549861        -1.852947         0.387953
 H         4.110382         0.005712         3.448256
