19
Iteration:  2542
 C         2.874240         1.876048         0.168599
 C         2.367458         0.762779         1.040004
 C         1.818941         0.764922         2.522602
 O         0.473198         0.412334         2.175753
 C         1.093390        -0.087206         0.889496
 C         0.190911        -0.050996        -0.244403
 C         1.844721        -1.374224         1.367784
 C         2.813635        -0.364865         2.075970
 O         4.086706        -0.706207         2.661208
 H         3.810754         2.267796         0.413067
 H         2.997198         1.436466        -0.835139
 H         2.214443         2.809592         0.135249
 H         1.879273         1.611251         3.268027
 H        -0.633153        -0.843899        -0.033545
 H        -0.330618         0.917382        -0.469732
 H         0.697098        -0.413640        -1.182687
 H         1.350339        -2.101932         2.015902
 H         2.389152        -2.029198         0.773909
 H         4.001141        -1.341106         3.395168
