19
Iteration:  3743
 C         3.203123         1.628784         0.223734
 C         2.334818         0.815037         1.069803
 C         1.814853         0.859494         2.523463
 O         0.493508         0.438286         2.207764
 C         1.011135        -0.096394         0.960791
 C        -0.015024        -0.216737        -0.241254
 C         1.818604        -1.346760         1.352340
 C         2.748871        -0.300483         2.022275
 O         4.049740        -0.566148         2.532604
 H         3.058132         2.667447         0.665192
 H         4.283136         1.521679         0.367919
 H         3.076694         1.610431        -0.803043
 H         2.190034         1.512483         3.321711
 H        -0.682803        -0.978688        -0.084668
 H        -0.562514         0.673526        -0.313500
 H         0.636491        -0.472155        -1.097052
 H         1.488755        -2.166823         1.967828
 H         2.180613        -1.833757         0.392756
 H         4.007191        -0.669767         3.510764
