19
Iteration:  1577charge 0 multiplicity 1
 C         2.992483         1.745217         0.243678
 C         2.388811         0.784000         1.180485
 C         1.816922         0.764180         2.570671
 O         0.473277         0.419922         2.110044
 C         1.080624        -0.104146         0.924246
 C         0.092863        -0.131982        -0.271008
 C         1.891815        -1.347873         1.277921
 C         2.715973        -0.437177         2.062713
 O         4.070065        -0.556080         2.675872
 H         3.960948         2.148707         0.740142
 H         3.109915         1.432811        -0.748460
 H         2.190816         2.615077         0.216273
 H         1.990659         1.076830         3.547713
 H        -0.349616        -1.162582        -0.155506
 H        -0.692346         0.592453        -0.390790
 H         0.606283        -0.331522        -1.214057
 H         1.260222        -2.077049         1.784450
 H         2.280053        -1.590673         0.241798
 H         4.565252         0.134713         2.259189
