19
Iteration:  1442charge 0 multiplicity 1
 C         3.078079         1.896051         0.319057
 C         2.310433         0.879801         1.015800
 C         1.785123         0.709538         2.554983
 O         0.494122         0.160000         2.185606
 C         1.127084        -0.130699         0.891278
 C         0.037403        -0.150127        -0.234147
 C         1.923565        -1.308234         1.274965
 C         2.781203        -0.265640         2.046826
 O         3.996614        -0.553712         2.666288
 H         3.926055         2.168296         0.922604
 H         3.491902         1.390744        -0.595261
 H         2.510792         2.844494         0.032232
 H         1.726675         1.535429         3.356416
 H        -0.951341        -0.187069         0.162015
 H         0.055643         0.841892        -0.733595
 H         0.141319        -0.841269        -1.078651
 H         1.354039        -1.999364         1.953110
 H         2.495183        -1.838354         0.577134
 H         4.251502        -1.259339         2.066761
