19
Iteration:  1681charge 0 multiplicity 1
 C         3.000557         1.778361         0.328988
 C         2.348243         0.761589         1.147427
 C         1.814110         0.673174         2.602619
 O         0.435547         0.497721         2.166785
 C         1.118004        -0.099617         0.868005
 C         0.154022        -0.217070        -0.294137
 C         1.818349        -1.410260         1.338622
 C         2.722606        -0.412507         2.040098
 O         4.098384        -0.414429         2.521115
 H         3.707595         2.381310         0.807414
 H         3.475849         1.301178        -0.605386
 H         2.226700         2.403674         0.034795
 H         2.040803         1.428787         3.311690
 H        -0.798860        -0.568848         0.133720
 H        -0.114478         0.842139        -0.556395
 H         0.441590        -0.694921        -1.220817
 H         1.282948        -2.239416         1.892661
 H         2.453928        -1.861655         0.594783
 H         4.398408        -1.270938         2.932773
