19
Iteration:  4012
 C         2.905874         1.695069        -0.012431
 C         2.369241         0.733590         1.137897
 C         1.862815         0.853384         2.519776
 O         0.511416         0.463454         2.223521
 C         1.033915        -0.049101         1.008625
 C         0.054659         0.068222        -0.206206
 C         1.851589        -1.344058         1.305905
 C         2.824862        -0.438793         1.999489
 O         4.109734        -0.760867         2.662583
 H         3.595527         1.224888        -0.711187
 H         2.069818         2.195983        -0.513420
 H         3.623123         2.475040         0.489375
 H         2.217410         1.263588         3.461562
 H        -0.859721        -0.363162         0.264887
 H         0.003837         1.054398        -0.684395
 H         0.420236        -0.573631        -0.999725
 H         1.416311        -2.047273         2.167239
 H         2.267809        -1.998581         0.428411
 H         3.844763        -0.765305         3.595758
