19
Iteration:  2423charge 0 multiplicity 1
 C         3.121868         1.644863         0.278694
 C         2.351235         0.756034         1.183799
 C         1.830394         0.789979         2.586685
 O         0.398055         0.309636         2.157445
 C         1.010685        -0.061536         0.885041
 C         0.031156        -0.042013        -0.271469
 C         1.942650        -1.413063         1.302250
 C         2.769607        -0.379673         2.062217
 O         4.067073        -0.419954         2.506771
 H         3.841366         2.227375         0.825852
 H         3.634512         1.027212        -0.408375
 H         2.581431         2.490709        -0.292365
 H         1.871557         1.534213         3.378714
 H        -0.826477        -0.582492         0.111413
 H        -0.329077         0.936583        -0.502218
 H         0.477608        -0.507446        -1.133484
 H         1.627128        -2.398768         1.936538
 H         2.503635        -1.766402         0.430855
 H         3.851322        -0.798958         3.406745
