19
Iteration:  4367
 C         3.114583         1.624136         0.139018
 C         2.324417         0.808724         1.129017
 C         1.898514         0.754485         2.562139
 O         0.489271         0.420071         2.309791
 C         0.964972        -0.095754         0.916502
 C        -0.059838         0.034320        -0.278612
 C         1.817209        -1.299039         1.326286
 C         2.787546        -0.387353         2.025975
 O         4.146421        -0.627044         2.538807
 H         4.000580         0.930757         0.050507
 H         2.627789         1.519780        -0.885373
 H         3.422159         2.583033         0.410118
 H         1.941874         1.512235         3.354159
 H        -0.962039        -0.466051         0.141242
 H        -0.240798         1.045950        -0.540346
 H         0.265933        -0.598872        -1.192048
 H         1.470966        -2.067776         1.981007
 H         2.257410        -1.773307         0.470187
 H         4.246383        -0.716465         3.502795
