19
Iteration:  1456charge 0 multiplicity 1
 C         3.104653         1.888688         0.256424
 C         2.225935         0.860848         1.104382
 C         1.786246         0.739569         2.540797
 O         0.528155         0.222595         2.190747
 C         1.028723        -0.156581         0.799373
 C         0.059179        -0.114069        -0.248268
 C         1.962449        -1.329744         1.350977
 C         2.788324        -0.288005         2.002238
 O         3.950952        -0.611777         2.683192
 H         3.818899         2.271474         1.034754
 H         3.596672         1.594045        -0.587283
 H         2.555171         2.839881        -0.047386
 H         2.079283         1.002974         3.536777
 H        -0.906787        -0.329218         0.303215
 H         0.032552         0.848049        -0.759233
 H         0.292270        -0.956677        -0.881044
 H         1.441958        -2.168527         1.877061
 H         2.520267        -1.701228         0.450490
 H         4.797309        -0.459922         2.134269
