19
Iteration:   693
 C         3.031902         1.903565         0.372740
 C         2.300753         0.800342         1.148666
 C         1.765042         0.600878         2.639153
 O         0.427800         0.112901         2.211267
 C         1.125711        -0.133846         0.826323
 C         0.040368         0.082354        -0.254707
 C         2.006686        -1.394393         1.075786
 C         2.793269        -0.321812         1.979701
 O         3.999600        -0.470446         2.709428
 H         3.899019         2.214048         1.006826
 H         3.562305         1.642192        -0.633866
 H         2.369382         2.739488         0.240831
 H         1.926560         1.347847         3.340960
 H        -0.785771        -0.572388        -0.092409
 H        -0.350412         1.115520        -0.190114
 H         0.541589        -0.196959        -1.228453
 H         1.502629        -2.257795         1.591477
 H         2.520972        -1.694260         0.168598
 H         4.572503        -1.140959         2.333175
