19
Iteration:  2300charge 0 multiplicity 1
 C         3.093365         1.903536         0.323489
 C         2.260235         0.867108         1.006200
 C         1.833529         0.778678         2.446266
 O         0.516753         0.332169         2.156089
 C         0.997255        -0.051590         0.893325
 C         0.077240        -0.240712        -0.238238
 C         1.888725        -1.410099         1.368552
 C         2.763738        -0.382665         2.087246
 O         4.012819        -0.641805         2.590714
 H         3.971179         1.991672         0.944106
 H         3.631556         1.515901        -0.513719
 H         2.727740         3.030828         0.080514
 H         2.110719         1.470447         3.306668
 H        -0.719838        -0.946071         0.024648
 H        -0.339918         0.742641        -0.539727
 H         0.645833        -0.630999        -1.117445
 H         1.280483        -2.042420         2.131693
 H         2.457450        -1.951204         0.577141
 H         4.154934         0.123345         3.221601
