19
Iteration:  3196
 C         2.907716         1.858821         0.169964
 C         2.447345         0.799158         1.081625
 C         1.884474         0.757571         2.520157
 O         0.547007         0.477098         2.159719
 C         1.092760        -0.135426         0.861615
 C         0.119494        -0.190441        -0.271789
 C         1.766448        -1.341690         1.387652
 C         2.802461        -0.356499         2.076379
 O         4.014750        -0.677909         2.669826
 H         3.406170         2.821634         0.531496
 H         3.460682         1.495850        -0.667542
 H         1.972529         2.226718        -0.152302
 H         2.109727         1.513841         3.350630
 H        -0.408122        -1.091804        -0.172444
 H        -0.479836         0.704458        -0.293105
 H         0.664147        -0.251684        -1.188871
 H         1.217814        -2.082958         2.022681
 H         2.196491        -1.904893         0.493207
 H         3.999259        -0.987424         3.608028
