19
Iteration:  2087charge 0 multiplicity 1
 C         3.054851         1.787039         0.348570
 C         2.379259         0.784623         1.121781
 C         1.736491         0.762998         2.454871
 O         0.487717         0.357847         2.078463
 C         1.075108        -0.160182         0.780641
 C        -0.031978        -0.176442        -0.146598
 C         1.983200        -1.300081         1.274760
 C         2.825380        -0.282016         2.040904
 O         4.037284        -0.621006         2.652329
 H         3.827117         2.271448         0.962797
 H         3.555134         1.461459        -0.656725
 H         2.289379         2.432843         0.080193
 H         1.606341         1.327507         3.382179
 H        -1.001708        -0.529684         0.261062
 H        -0.012788         0.898191        -0.312854
 H         0.159078        -0.730889        -1.080596
 H         1.553106        -2.095940         1.962909
 H         2.511260        -1.907917         0.522684
 H         4.216156         0.015128         3.389918
