19
Iteration:  1476charge 0 multiplicity 1
 C         3.020229         1.850719         0.347664
 C         2.446537         0.794028         1.172450
 C         1.802845         0.686351         2.543069
 O         0.424722         0.369542         2.178826
 C         0.990357        -0.112918         0.894591
 C         0.056095        -0.157819        -0.244517
 C         1.971514        -1.406114         1.180033
 C         2.799435        -0.363599         1.985197
 O         4.020611        -0.568227         2.658647
 H         3.858723         2.393738         0.804562
 H         3.470857         1.314570        -0.516598
 H         2.199630         2.538993        -0.152502
 H         1.971460         1.511507         3.306878
 H        -0.931374        -0.513585         0.084186
 H         0.041016         0.891978        -0.572638
 H         0.347946        -0.855575        -1.006556
 H         1.398890        -2.164774         1.807102
 H         2.249155        -1.758471         0.216560
 H         4.590387         0.253315         2.804774
