19
Iteration:  3248
 C         3.234005         1.734758         0.286277
 C         2.370770         0.792071         1.112733
 C         1.781789         0.857199         2.424393
 O         0.423711         0.334266         2.155087
 C         1.029090        -0.160437         0.878731
 C         0.013104        -0.144178        -0.198959
 C         1.902950        -1.432593         1.414375
 C         2.727397        -0.315360         2.054861
 O         4.023499        -0.505698         2.500038
 H         3.858630         2.212980         1.108920
 H         3.885165         1.289959        -0.516701
 H         2.665262         2.563200        -0.131855
 H         1.840811         1.581297         3.322264
 H        -0.796604        -0.822863         0.099918
 H        -0.358500         0.928955        -0.180703
 H         0.416671        -0.495200        -1.111394
 H         1.358642        -2.173603         1.912314
 H         2.384158        -1.873710         0.587372
 H         4.245200        -0.518222         3.460896
