19
Iteration:  1683
 C         3.003548         1.771510         0.322820
 C         2.356878         0.743736         1.140948
 C         1.800493         0.705460         2.593060
 O         0.435857         0.481630         2.179688
 C         1.106667        -0.118016         0.873697
 C         0.164436        -0.202552        -0.298795
 C         1.830832        -1.384855         1.344972
 C         2.703733        -0.404572         2.031563
 O         4.109188        -0.422768         2.521062
 H         3.736153         2.380490         0.844103
 H         3.463943         1.362652        -0.575705
 H         2.192978         2.430215         0.024928
 H         2.092517         1.353250         3.339095
 H        -0.800190        -0.640895         0.142926
 H        -0.089984         0.835430        -0.527119
 H         0.460265        -0.715585        -1.215676
 H         1.227563        -2.201701         1.827550
 H         2.417368        -1.890403         0.601274
 H         4.348295        -1.245760         2.938213
