19
Iteration:  3372charge 0 multiplicity 1
 C         2.877721         1.801529         0.174603
 C         2.393257         0.764338         1.079151
 C         1.885798         0.848959         2.474972
 O         0.536348         0.462961         2.160128
 C         1.075014        -0.177999         0.884428
 C         0.122093        -0.149604        -0.287944
 C         1.881346        -1.413244         1.462622
 C         2.782496        -0.352590         2.044451
 O         3.990592        -0.685880         2.665879
 H         3.857770         2.192492         0.748141
 H         3.266278         1.583345        -0.823337
 H         2.157439         2.647352         0.084815
 H         2.174973         1.655363         3.159907
 H        -0.553772        -0.986425        -0.238821
 H        -0.438700         0.834068        -0.379160
 H         0.807428        -0.278570        -1.171374
 H         1.260864        -2.016029         2.077083
 H         2.412990        -1.792146         0.546029
 H         3.781663        -0.209379         3.505050
