19
Iteration:  3586charge 0 multiplicity 1
 C         2.929408         1.820391         0.217690
 C         2.429353         0.725980         1.029423
 C         1.943805         0.756873         2.430015
 O         0.536455         0.558493         2.179078
 C         1.034584        -0.190164         0.855299
 C         0.088197        -0.219979        -0.266699
 C         1.749656        -1.395800         1.430195
 C         2.842516        -0.434640         2.021392
 O         4.004929        -0.505332         2.704235
 H         4.044932         1.917954         0.451209
 H         2.864110         1.764192        -0.890645
 H         2.467765         2.835406         0.576471
 H         2.257596         1.499631         3.258989
 H        -0.461237        -1.199845        -0.263790
 H        -0.666177         0.607275        -0.348520
 H         0.657778        -0.298423        -1.147610
 H         1.167877        -1.923934         2.209404
 H         2.264358        -1.906375         0.554984
 H         3.903117        -0.965115         3.568187
