19
Iteration:  4155charge 0 multiplicity 1
 C         3.208277         1.676807         0.207582
 C         2.393022         0.740084         1.094938
 C         1.870232         0.788127         2.539574
 O         0.543342         0.467517         2.215088
 C         1.025355        -0.089265         0.887156
 C        -0.056292        -0.021610        -0.082340
 C         1.756020        -1.369187         1.403839
 C         2.664455        -0.400073         1.973659
 O         4.083550        -0.597187         2.400972
 H         3.802650         2.272625         0.927641
 H         3.918570         1.155202        -0.482862
 H         2.546104         2.388775        -0.290196
 H         2.219860         1.350829         3.393361
 H        -0.864202        -0.730364         0.332802
 H        -0.389357         1.078040         0.037418
 H         0.354552        -0.236160        -1.060252
 H         1.115710        -2.080277         1.911055
 H         2.350750        -1.910710         0.610663
 H         3.952461        -1.179727         3.171919
