19
Iteration:  2707charge 0 multiplicity 1
 C         3.211073         1.804486         0.343130
 C         2.342012         0.813330         1.111759
 C         1.794312         0.844004         2.468051
 O         0.429890         0.345106         2.188818
 C         1.070974        -0.127253         0.897631
 C         0.056375        -0.165377        -0.160205
 C         1.815713        -1.372224         1.360576
 C         2.769915        -0.328004         2.047541
 O         4.015307        -0.586545         2.426720
 H         4.146139         1.919784         0.862502
 H         3.449143         1.200546        -0.606164
 H         2.701782         2.877406         0.265195
 H         1.943298         1.493544         3.281441
 H        -0.608535        -1.091611         0.050173
 H        -0.454488         0.835148        -0.349873
 H         0.519411        -0.384948        -1.152047
 H         1.335241        -2.202192         1.709146
 H         2.412534        -1.754523         0.568181
 H         4.071733        -0.727612         3.406068
