19
Iteration:   208charge 0 multiplicity 1
 C         2.983545         2.075447         0.664531
 C         2.375056         0.822194         1.168767
 C         1.816244         0.507940         2.537659
 O         0.487742         0.235146         2.196015
 C         1.188435        -0.036871         0.701895
 C        -0.022638        -0.115112        -0.202606
 C         1.946551        -1.375362         1.026513
 C         2.774634        -0.442995         1.960390
 O         3.976744        -0.501555         2.608333
 H         3.717493         2.410448         1.408907
 H         3.452183         2.047778        -0.411088
 H         2.226804         2.855517         0.669237
 H         1.822563         0.954126         3.597423
 H        -0.740309        -0.876520         0.229289
 H        -0.491344         0.852826        -0.280952
 H         0.306828        -0.418484        -1.182637
 H         1.576666        -2.358181         1.200514
 H         2.588110        -1.469161         0.107356
 H         4.733787        -1.034634         2.217792
