19
Iteration:  3658
 C         3.090295         1.654691         0.129585
 C         2.370596         0.769315         1.118385
 C         1.787625         0.779393         2.566118
 O         0.477447         0.393497         2.225977
 C         1.030613        -0.055229         0.935139
 C         0.163124        -0.138909        -0.210488
 C         1.822060        -1.394346         1.386567
 C         2.723756        -0.307046         2.066046
 O         4.016546        -0.501426         2.502866
 H         3.561557         2.599360         0.531023
 H         3.934871         1.000432        -0.164242
 H         2.479979         1.953215        -0.752416
 H         2.147909         1.365980         3.418799
 H        -0.901074        -0.517102         0.040960
 H         0.141018         0.804698        -0.679127
 H         0.738721        -0.726508        -1.030542
 H         1.188472        -2.204944         1.860556
 H         2.348990        -1.594088         0.481545
 H         3.962866        -0.715134         3.448612
