19
Iteration:     4charge 0 multiplicity 1
 C         2.967804         2.019596         0.595359
 C         2.282372         0.867311         1.234011
 C         1.748613         0.560925         2.611581
 O         0.466441         0.129406         2.156481
 C         1.082527        -0.095334         0.854528
 C         0.104513         0.021163        -0.272734
 C         1.981458        -1.353125         1.044677
 C         2.807962        -0.402043         1.983656
 O         4.070460        -0.541749         2.446340
 H         3.737878         2.392481         1.254481
 H         3.330568         1.792735        -0.360185
 H         2.162893         2.862180         0.478034
 H         1.912325         0.990402         3.560928
 H        -0.549054        -0.917068        -0.151333
 H        -0.400637         0.962472        -0.287338
 H         0.594796        -0.141861        -1.216308
 H         1.580578        -2.282783         1.620924
 H         2.648120        -1.584860         0.202262
 H         4.057520        -0.977163         3.342421
