19
Iteration:  3613charge 0 multiplicity 1
 C         2.922404         1.829180         0.161340
 C         2.409103         0.739303         1.051740
 C         1.894761         0.856991         2.417999
 O         0.481536         0.498078         2.102607
 C         1.062524        -0.184446         0.962275
 C         0.139380        -0.163828        -0.216973
 C         1.866023        -1.364258         1.489735
 C         2.777448        -0.390930         2.116458
 O         3.995645        -0.668028         2.595410
 H         3.800121         2.411574         0.621607
 H         3.240579         1.537480        -0.856780
 H         2.199484         2.615327         0.153291
 H         2.026438         1.664712         3.076111
 H        -0.552973        -1.005717        -0.122499
 H        -0.373903         0.772341        -0.371825
 H         0.805708        -0.274782        -1.158501
 H         1.315699        -1.970142         2.257067
 H         2.426510        -1.871490         0.677794
 H         3.986640        -1.097457         3.472844
