19
Iteration:  2264
 C         3.204466         1.749947         0.314461
 C         2.336799         0.812097         1.190648
 C         1.749253         0.748319         2.540377
 O         0.423297         0.360588         2.060056
 C         1.006269        -0.077750         0.861760
 C        -0.075538        -0.168570        -0.191237
 C         2.049639        -1.366223         1.305105
 C         2.735524        -0.387274         2.086933
 O         4.067475        -0.504027         2.531180
 H         4.030119         2.173160         1.000602
 H         3.608328         1.010711        -0.419399
 H         2.788709         2.582159        -0.238268
 H         1.658297         1.431868         3.341111
 H        -1.004373        -0.673290         0.272597
 H        -0.432539         0.902772        -0.515835
 H         0.322436        -0.745112        -1.085871
 H         1.624034        -2.308742         1.814211
 H         2.637616        -1.807390         0.364839
 H         4.203228        -0.068474         3.414970
