19
Iteration:  3397charge 0 multiplicity 1
 C         2.868022         1.866076         0.158772
 C         2.407814         0.819309         1.021598
 C         1.933017         0.735934         2.417724
 O         0.524102         0.529254         2.236277
 C         0.997197        -0.059737         0.929050
 C         0.162639        -0.256109        -0.285255
 C         1.815964        -1.368445         1.352272
 C         2.805046        -0.376314         2.065176
 O         4.030975        -0.737437         2.737153
 H         3.541456         2.536673         0.654783
 H         3.560789         1.482176        -0.634782
 H         2.044703         2.496074        -0.425886
 H         2.192495         1.374950         3.330527
 H        -0.302961        -1.266531        -0.192608
 H        -0.513604         0.456336        -0.472963
 H         0.939181        -0.263159        -1.069406
 H         0.999857        -1.901898         1.991050
 H         2.293836        -1.704814         0.456263
 H         3.858526        -0.282273         3.592122
