19
Iteration:  4868charge 0 multiplicity 1
 C         3.029643         1.705304         0.193919
 C         2.349499         0.766015         1.074569
 C         1.802439         0.873697         2.431634
 O         0.540804         0.340203         2.223208
 C         1.115688        -0.169938         0.829029
 C         0.111730        -0.150785        -0.303518
 C         1.761940        -1.403302         1.424805
 C         2.740205        -0.265367         2.108926
 O         4.069427        -0.515943         2.639298
 H         4.025975         1.349528        -0.247994
 H         2.411696         1.937844        -0.760606
 H         3.221664         2.583111         0.769714
 H         1.798545         1.769322         3.055444
 H        -0.710680        -0.971018        -0.011039
 H        -0.413127         0.843634        -0.077843
 H         0.611227        -0.306188        -1.351854
 H         1.062097        -2.006345         2.001057
 H         2.418879        -2.016860         0.852375
 H         4.248579        -0.709798         3.568631
