19
Iteration:   141
 C         2.797676         1.932915         0.474056
 C         2.219488         0.859750         1.312458
 C         1.746035         0.572318         2.675659
 O         0.497266        -0.007538         2.227390
 C         1.098108        -0.036108         0.935645
 C         0.347608         0.200891        -0.333879
 C         1.964663        -1.374965         1.185625
 C         2.739154        -0.386977         1.925833
 O         4.023832        -0.625076         2.444785
 H         3.751837         2.476505         0.780977
 H         3.014676         1.384185        -0.571378
 H         2.139073         2.694824         0.232450
 H         2.044030         1.230807         3.402382
 H        -0.586457        -0.314102        -0.405669
 H         0.228384         1.293746        -0.526011
 H         0.992109        -0.269717        -1.149514
 H         1.536920        -2.289197         1.541909
 H         2.504913        -1.607893         0.198367
 H         4.445310         0.214379         2.358095
