19
Iteration:  2363charge 0 multiplicity 1
 C         2.785039         1.867832         0.137325
 C         2.424817         0.719627         1.130827
 C         1.851847         0.768739         2.568784
 O         0.481722         0.468189         2.156266
 C         1.125119        -0.151563         0.912055
 C         0.178906        -0.105829        -0.338142
 C         1.901690        -1.354465         1.405271
 C         2.747430        -0.331384         2.108806
 O         4.064319        -0.696834         2.625622
 H         3.744053         2.306276         0.583747
 H         2.884186         1.406844        -0.882467
 H         2.038860         2.561816        -0.000079
 H         2.022568         1.489013         3.382479
 H        -0.646469        -0.872747        -0.487341
 H        -0.117408         1.016207        -0.307654
 H         0.686185        -0.187581        -1.375546
 H         1.370927        -2.074736         2.079782
 H         2.571702        -1.874654         0.607302
 H         3.903419        -1.140636         3.504504
