19
Iteration:  1889
 C         2.995283         1.882238         0.269340
 C         2.316192         0.879039         1.115881
 C         1.779903         0.775485         2.539088
 O         0.519536         0.249312         2.189907
 C         1.119014        -0.188302         0.889427
 C         0.025995        -0.164995        -0.317346
 C         1.952801        -1.317994         1.366365
 C         2.814812        -0.278012         1.964568
 O         3.977702        -0.679464         2.606183
 H         3.730843         2.240926         0.975119
 H         3.658643         1.309186        -0.546038
 H         2.502551         2.768108         0.037280
 H         1.851593         1.277944         3.594299
 H        -0.946341        -0.268726         0.169335
 H         0.019721         0.808433        -0.765543
 H         0.189369        -0.717286        -1.232856
 H         1.469103        -1.959569         2.114574
 H         2.531355        -1.751551         0.605921
 H         4.355134         0.041555         3.090246
