19
Iteration:  1245charge 0 multiplicity 1
 C         2.992983         1.839548         0.483595
 C         2.353471         0.812272         1.254397
 C         1.758149         0.612665         2.619441
 O         0.390779         0.312284         2.066373
 C         1.102533        -0.150047         0.802632
 C         0.074569        -0.094212        -0.271621
 C         1.991570        -1.323087         1.255137
 C         2.780062        -0.344744         2.045695
 O         4.111352        -0.483667         2.471356
 H         3.817177         2.242685         1.077337
 H         3.274144         1.454290        -0.496236
 H         2.124957         2.681715         0.346396
 H         1.831920         1.328222         3.360051
 H        -0.875892        -0.510635         0.030686
 H        -0.043886         0.936524        -0.657160
 H         0.425922        -0.718694        -1.155202
 H         1.408045        -2.139990         1.850305
 H         2.525485        -1.649602         0.360770
 H         4.208511        -1.181975         3.113385
