19
Iteration:  3813
 C         2.909068         1.769032         0.102488
 C         2.321742         0.673744         1.037565
 C         1.869733         0.886834         2.481687
 O         0.457793         0.481766         2.181242
 C         1.049747        -0.124645         0.897816
 C         0.075775         0.001494        -0.296726
 C         1.887676        -1.391549         1.555577
 C         2.853891        -0.429557         2.097985
 O         4.131318        -0.709896         2.605707
 H         2.178556         2.403066        -0.373465
 H         3.376270         2.505536         0.786430
 H         3.794295         1.504696        -0.604122
 H         2.082813         1.715401         3.132455
 H        -0.871173        -0.484460        -0.117742
 H        -0.083698         1.023711        -0.308886
 H         0.600888        -0.338068        -1.127039
 H         1.139242        -2.088206         2.103036
 H         2.232044        -2.002024         0.749876
 H         3.887766        -1.289078         3.362178
