19
Iteration:  4870
 C         3.035220         1.691282         0.180452
 C         2.359864         0.748676         1.087090
 C         1.775750         0.891437         2.424809
 O         0.535817         0.333220         2.226593
 C         1.123098        -0.166624         0.848406
 C         0.107380        -0.144641        -0.307013
 C         1.780371        -1.409348         1.426117
 C         2.743542        -0.277160         2.104178
 O         4.064789        -0.504825         2.629162
 H         4.005662         1.334912        -0.224329
 H         2.424210         1.992828        -0.769059
 H         3.278173         2.602951         0.771499
 H         1.763994         1.743576         3.102490
 H        -0.666368        -0.894490        -0.050243
 H        -0.426956         0.880034        -0.112469
 H         0.569686        -0.294277        -1.269987
 H         1.037956        -1.996150         2.046101
 H         2.459915        -1.963996         0.800044
 H         4.213572        -0.735636         3.555313
