19
Iteration:  4976charge 0 multiplicity 1
 C         3.114349         1.742640         0.296042
 C         2.376452         0.719739         1.024797
 C         1.728281         0.836743         2.455586
 O         0.432897         0.441783         2.050599
 C         1.015085        -0.184837         0.913616
 C         0.031816        -0.235854        -0.186781
 C         1.932362        -1.418878         1.489425
 C         2.869562        -0.299749         2.010068
 O         4.040193        -0.461025         2.629418
 H         2.653016         1.888636        -0.741147
 H         3.226805         2.736148         0.780431
 H         4.076323         1.373740         0.091882
 H         1.912392         1.731079         3.052941
 H        -0.915325        -0.913880        -0.125424
 H        -0.376078         0.689255        -0.568274
 H         0.604855        -0.491914        -1.136792
 H         1.549751        -2.158765         2.262302
 H         2.318208        -2.052404         0.585827
 H         3.933817        -0.479412         3.592643
