19
Iteration:  2068
 C         3.170902         1.848322         0.296002
 C         2.294100         0.871686         1.114246
 C         1.790299         0.778099         2.491926
 O         0.421430         0.275015         2.150564
 C         1.020295        -0.150401         0.889119
 C         0.003961        -0.126332        -0.243753
 C         1.961735        -1.443353         1.297025
 C         2.798371        -0.349247         2.088409
 O         4.038087        -0.543939         2.598075
 H         4.026736         2.190736         1.000569
 H         3.750654         1.388460        -0.516349
 H         2.552812         2.621867        -0.282538
 H         2.025389         1.450174         3.242770
 H        -0.928428        -0.479660         0.192279
 H        -0.231398         0.885523        -0.636420
 H         0.194452        -0.874373        -1.007811
 H         1.709029        -2.375693         1.838508
 H         2.456674        -1.692617         0.290689
 H         3.979851        -0.033706         3.414908
