19
Iteration:  3173
 C         2.847406         1.845729         0.088944
 C         2.356002         0.778729         1.092706
 C         1.783702         0.878427         2.500274
 O         0.447347         0.458982         2.152980
 C         1.117122        -0.114551         0.948122
 C         0.234679        -0.094283        -0.236233
 C         1.905830        -1.386984         1.425440
 C         2.814650        -0.358859         2.079913
 O         4.005160        -0.766855         2.615132
 H         3.770222         2.502594         0.454476
 H         3.243288         1.250965        -0.727312
 H         2.100116         2.525985        -0.130817
 H         2.020153         1.515703         3.457402
 H        -0.378751        -0.938321        -0.086648
 H        -0.241597         0.876404        -0.386629
 H         0.781302        -0.308163        -1.095625
 H         1.534564        -2.251135         2.053386
 H         2.497233        -1.847972         0.570000
 H         4.085416        -1.050288         3.522105
