19
Iteration:  3348
 C         3.049366         1.793848         0.119403
 C         2.389094         0.756076         1.098654
 C         1.755118         0.797518         2.502444
 O         0.404743         0.342380         2.089104
 C         1.120790        -0.195687         0.866274
 C         0.128876        -0.073998        -0.233067
 C         1.871893        -1.378650         1.511218
 C         2.749874        -0.372213         2.136673
 O         4.085300        -0.554877         2.581465
 H         4.165947         2.001713         0.460255
 H         3.050072         1.555310        -0.961247
 H         2.476286         2.667475         0.240165
 H         1.978058         1.489183         3.262792
 H        -0.742824        -0.612978         0.119862
 H        -0.159806         1.076182        -0.242253
 H         0.461505        -0.385392        -1.230015
 H         1.280582        -1.938581         2.145067
 H         2.267781        -1.846359         0.610519
 H         3.971561        -0.607527         3.552933
