19
Iteration:  4043charge 0 multiplicity 1
 C         3.009198         1.684222         0.066164
 C         2.356392         0.648601         1.078756
 C         1.960770         0.824685         2.517415
 O         0.597579         0.430686         2.245531
 C         1.022373        -0.112864         0.911175
 C         0.067326         0.104042        -0.140181
 C         1.814549        -1.411636         1.330582
 C         2.737833        -0.445737         2.059742
 O         3.983599        -0.561826         2.568519
 H         3.908201         1.400344        -0.424420
 H         2.392085         1.981247        -0.764653
 H         3.148237         2.665107         0.688195
 H         2.310848         1.351266         3.419541
 H        -0.983707        -0.307624         0.224295
 H        -0.132582         1.177758        -0.383783
 H         0.344759        -0.594313        -1.041005
 H         1.319381        -2.105769         2.070445
 H         2.301742        -2.038839         0.573972
 H         3.844288        -0.997575         3.438391
