19
Iteration:   245
 C         3.051629         2.165835         0.707404
 C         2.273153         0.963607         1.141678
 C         1.747006         0.701521         2.512111
 O         0.502801         0.166564         2.192475
 C         1.006721        -0.225939         0.800263
 C         0.061331        -0.148832        -0.286097
 C         1.969518        -1.328366         1.214784
 C         2.873456        -0.318879         1.835392
 O         3.980917        -0.746603         2.540269
 H         3.787175         2.282282         1.521550
 H         3.670275         2.025646        -0.134996
 H         2.381236         3.173658         0.561774
 H         1.940870         1.264704         3.452921
 H        -0.523204        -1.089483        -0.322935
 H        -0.778354         0.577626        -0.102813
 H         0.603444        -0.136719        -1.241101
 H         1.376572        -2.096366         1.755152
 H         2.625777        -1.710476         0.489339
 H         4.745243        -0.801906         1.898652
