19
Iteration:  1043charge 0 multiplicity 1
 C         3.012245         1.999035         0.571914
 C         2.222875         0.830165         1.102839
 C         1.812218         0.628337         2.569364
 O         0.449528         0.191595         2.251469
 C         1.021658        -0.173416         0.857299
 C         0.193490        -0.073054        -0.367589
 C         1.961182        -1.352666         1.206134
 C         2.816257        -0.338281         1.897244
 O         3.995040        -0.588752         2.525286
 H         3.824519         2.319250         1.330896
 H         3.550929         1.892070        -0.461656
 H         2.340769         2.817819         0.571886
 H         1.951989         0.945678         3.547972
 H        -0.679088        -0.475256         0.083785
 H        -0.115670         0.922046        -0.597355
 H         0.497224        -0.651002        -1.197764
 H         1.515637        -2.199812         1.637798
 H         2.492451        -1.792735         0.365273
 H         4.391169         0.249648         2.950666
