19
Iteration:  1878charge 0 multiplicity 1
 C         3.031502         1.878905         0.335520
 C         2.369258         0.838744         1.149321
 C         1.806910         0.681429         2.514483
 O         0.490134         0.284407         2.198104
 C         1.002322        -0.161443         0.853931
 C         0.109863        -0.164172        -0.285048
 C         1.880325        -1.324591         1.318971
 C         2.797285        -0.295645         2.010272
 O         4.010707        -0.595383         2.582551
 H         3.838417         2.363218         0.875341
 H         3.540688         1.453946        -0.663891
 H         2.359718         2.562590        -0.095294
 H         2.117283         1.382196         3.361656
 H        -0.920061        -0.355816         0.040855
 H         0.141960         0.826760        -0.680830
 H         0.288302        -1.018204        -0.904886
 H         1.448798        -2.122662         1.951984
 H         2.264031        -1.806111         0.458160
 H         4.303520         0.170918         3.108598
