19
Iteration:  3009charge 0 multiplicity 1
 C         2.981312         1.806874         0.234253
 C         2.353121         0.723404         1.086292
 C         1.836079         0.782360         2.500391
 O         0.516361         0.480528         2.140291
 C         1.069015        -0.148608         0.919785
 C         0.161161        -0.113973        -0.241482
 C         1.823485        -1.406510         1.394745
 C         2.766985        -0.327176         2.081041
 O         4.027022        -0.631237         2.563315
 H         3.598073         2.537000         0.839614
 H         3.527847         1.448336        -0.508820
 H         2.185847         2.402206        -0.022282
 H         2.243034         1.673112         3.038275
 H        -0.465623        -1.030587        -0.109275
 H        -0.490039         0.817924        -0.360258
 H         0.590404        -0.266013        -1.210644
 H         1.181523        -2.078968         1.976409
 H         2.413938        -1.967847         0.616167
 H         3.997515        -0.991515         3.491166
