19
Iteration:  1826
 C         2.990651         1.851066         0.306337
 C         2.360080         0.778093         1.141660
 C         1.780865         0.776772         2.537184
 O         0.438706         0.277942         2.129347
 C         1.049077        -0.101258         0.878559
 C         0.093497        -0.117202        -0.281359
 C         1.931951        -1.362894         1.416063
 C         2.780557        -0.336851         2.062839
 O         4.078160        -0.556566         2.484663
 H         3.830456         2.203703         0.975774
 H         3.513296         1.475113        -0.556970
 H         2.381021         2.761096         0.059734
 H         2.024043         1.571821         3.345319
 H        -0.833115        -0.729504        -0.069798
 H        -0.194074         0.884122        -0.565499
 H         0.631858        -0.578020        -1.142639
 H         1.392578        -2.105480         2.024438
 H         2.546079        -1.964852         0.732310
 H         3.964672        -0.985810         3.342004
