19
Iteration:   146
 C         2.833876         1.936020         0.461969
 C         2.197412         0.933044         1.284457
 C         1.787858         0.585520         2.673216
 O         0.492015        -0.062440         2.251723
 C         1.093766        -0.073226         0.914508
 C         0.332228         0.198388        -0.337625
 C         1.940511        -1.389648         1.144412
 C         2.781678        -0.354270         1.956694
 O         3.990369        -0.635027         2.454440
 H         3.756876         2.348257         0.788862
 H         3.011882         1.419862        -0.412381
 H         2.089389         2.796238         0.173141
 H         2.000168         1.346767         3.535289
 H        -0.684973        -0.260506        -0.476160
 H         0.333907         1.252422        -0.577122
 H         0.837357        -0.233144        -1.171319
 H         1.441431        -2.252795         1.668051
 H         2.622989        -1.526207         0.342322
 H         4.625677         0.141725         2.378076
