19
Iteration:  3845
 C         3.018835         1.673883         0.088283
 C         2.377805         0.762093         1.061756
 C         1.919242         0.760226         2.564228
 O         0.478160         0.427094         2.221974
 C         1.117663        -0.068219         0.936248
 C         0.113074        -0.010616        -0.170303
 C         1.810021        -1.415403         1.377155
 C         2.772062        -0.466988         2.021272
 O         3.970674        -0.524747         2.571912
 H         2.348186         1.879551        -0.760991
 H         3.211608         2.626124         0.621633
 H         3.978091         1.295709        -0.415525
 H         2.096250         1.510741         3.355217
 H        -0.818918        -0.323366         0.203425
 H         0.105033         0.950305        -0.495824
 H         0.436357        -0.548759        -1.042771
 H         1.064093        -2.067899         1.998052
 H         2.274479        -1.806587         0.507795
 H         3.949159        -0.844455         3.494822
