19
Iteration:  3337charge 0 multiplicity 1
 C         3.057398         1.700790         0.192064
 C         2.393188         0.742537         1.133875
 C         1.732779         0.783229         2.489038
 O         0.415634         0.331721         2.145016
 C         1.100082        -0.129471         0.913516
 C         0.069382        -0.062678        -0.284558
 C         1.826962        -1.410637         1.436471
 C         2.832179        -0.291677         2.064966
 O         4.101072        -0.481478         2.590300
 H         4.245120         1.795216         0.444513
 H         3.014514         1.355078        -0.867694
 H         2.782944         2.702034         0.232601
 H         1.689514         1.504481         3.244916
 H        -0.874888        -0.522558        -0.020478
 H        -0.154045         1.090642        -0.570508
 H         0.403335        -0.610333        -1.153917
 H         1.294968        -2.111107         1.957712
 H         2.492456        -2.031675         0.816192
 H         4.064052        -0.830594         3.516994
