19
Iteration:  1675
 C         3.001052         1.778884         0.317413
 C         2.334251         0.781877         1.190844
 C         1.843818         0.622765         2.605552
 O         0.443606         0.518913         2.117600
 C         1.106040        -0.068398         0.855029
 C         0.118375        -0.203624        -0.274413
 C         1.810775        -1.474307         1.333414
 C         2.805022        -0.425882         2.081700
 O         4.063633        -0.403707         2.521622
 H         3.801392         2.435950         0.840874
 H         3.424753         1.277950        -0.494237
 H         2.176813         2.527751        -0.097885
 H         1.929523         1.485571         3.296964
 H        -0.878297        -0.550797         0.118011
 H        -0.136736         0.771889        -0.668697
 H         0.460076        -0.756097        -1.178276
 H         1.425958        -2.205127         2.029758
 H         2.445693        -1.806569         0.467479
 H         4.371350        -1.222790         2.855466
