19
Iteration:  4780
 C         3.070453         1.748473         0.152090
 C         2.423430         0.842893         1.131550
 C         1.826659         0.854311         2.457142
 O         0.472398         0.361367         2.178231
 C         1.030455        -0.138248         0.893483
 C         0.018138        -0.218136        -0.248472
 C         1.852477        -1.384920         1.445535
 C         2.837775        -0.305620         2.056539
 O         4.037401        -0.575187         2.590645
 H         3.796103         2.472780         0.749217
 H         3.730279         1.246543        -0.702284
 H         2.394342         2.462334        -0.302227
 H         1.951385         1.594721         3.256384
 H        -1.064034        -0.616188        -0.010644
 H        -0.179413         0.836180        -0.390482
 H         0.441293        -0.697916        -1.240282
 H         1.242154        -1.927565         2.215372
 H         2.331679        -1.956711         0.671221
 H         3.858801        -0.850437         3.506591
