19
Iteration:  2592charge 0 multiplicity 1
 C         2.907162         1.731795         0.173064
 C         2.346200         0.781794         1.108359
 C         1.894317         0.694815         2.537193
 O         0.432415         0.399031         2.216764
 C         1.085962        -0.100953         0.924951
 C         0.183203         0.003954        -0.267408
 C         1.886622        -1.328924         1.306551
 C         2.794714        -0.430797         2.089462
 O         4.036370        -0.606191         2.610947
 H         3.722234         2.440280         0.526550
 H         3.244514         1.177523        -0.719094
 H         2.130689         2.387088        -0.040218
 H         2.065718         1.271928         3.403588
 H        -0.742710        -0.445228        -0.137547
 H         0.012426         1.006734        -0.578387
 H         0.589207        -0.499388        -1.135621
 H         1.353380        -2.201048         1.770459
 H         2.182263        -1.902920         0.401038
 H         4.133625        -0.216073         3.515200
