19
Iteration:  3995charge 0 multiplicity 1
 C         2.962779         1.707806         0.077573
 C         2.344775         0.817747         1.126210
 C         1.920327         0.784571         2.535601
 O         0.514552         0.475928         2.238108
 C         1.045768        -0.056056         0.880180
 C         0.032607        -0.028198        -0.234233
 C         1.837431        -1.334026         1.435835
 C         2.823969        -0.317333         2.060010
 O         4.087276        -0.817363         2.582087
 H         3.115868         1.063192        -0.832166
 H         2.228241         2.473623        -0.264454
 H         3.838952         2.188678         0.328319
 H         1.956514         1.507098         3.346433
 H        -0.918632        -0.501401        -0.002725
 H        -0.152023         1.032601        -0.517419
 H         0.452730        -0.570415        -1.132545
 H         1.306253        -2.055526         1.933710
 H         2.282422        -1.841392         0.610912
 H         4.024525        -0.801371         3.547921
