19
Iteration:  2196
 C         2.961423         1.735343         0.228617
 C         2.294795         0.735798         1.152524
 C         1.764603         0.685887         2.555963
 O         0.406317         0.416806         2.143974
 C         1.115916        -0.169656         0.894256
 C         0.173059        -0.068370        -0.292258
 C         1.912345        -1.359441         1.399677
 C         2.842735        -0.338791         2.105935
 O         4.059653        -0.469984         2.558675
 H         3.855085         2.156122         0.743587
 H         3.281544         1.144434        -0.690535
 H         2.499352         2.574573        -0.147037
 H         1.915999         1.564165         3.225266
 H        -0.683812        -0.831377        -0.324179
 H        -0.267813         0.973749        -0.204073
 H         0.675613        -0.106212        -1.285914
 H         1.271820        -2.058351         1.992367
 H         2.309922        -2.004558         0.547166
 H         4.275183        -1.277857         3.078470
