19
Iteration:  2691
 C         3.256654         1.701383         0.414486
 C         2.319032         0.829633         1.108636
 C         1.755933         0.768548         2.598799
 O         0.506764         0.446238         2.120807
 C         0.994874        -0.040421         0.889170
 C        -0.015807        -0.275900        -0.186759
 C         1.897025        -1.325025         1.266687
 C         2.719901        -0.361688         2.034334
 O         4.056580        -0.517871         2.415577
 H         4.157129         1.911622         1.048469
 H         3.574622         1.432580        -0.550906
 H         2.751235         2.551395         0.211720
 H         1.986305         1.469702         3.477492
 H        -0.580070        -1.094099         0.091863
 H        -0.689399         0.531137        -0.277376
 H         0.408310        -0.481221        -1.161286
 H         1.277924        -1.938114         2.098949
 H         2.305221        -1.910141         0.361479
 H         4.031594        -0.948028         3.313007
