19
Iteration:  4210charge 0 multiplicity 1
 C         2.876370         1.718057         0.027476
 C         2.416476         0.795745         1.107253
 C         1.973147         0.709520         2.552534
 O         0.562576         0.439294         2.273432
 C         1.018857        -0.039289         1.037783
 C         0.143588         0.110118        -0.148344
 C         1.863276        -1.406827         1.321271
 C         2.746371        -0.419811         1.964468
 O         3.975208        -0.761507         2.557979
 H         3.371584         2.650371         0.432147
 H         3.811958         1.370061        -0.559622
 H         2.010598         1.871142        -0.667077
 H         2.444015         1.315466         3.323316
 H        -1.042560        -0.110097         0.156715
 H         0.066641         1.279774        -0.481650
 H         0.370379        -0.554302        -0.996598
 H         1.246542        -1.922975         2.022810
 H         2.080994        -1.930770         0.336382
 H         3.952064        -0.503700         3.496786
