19
Iteration:  2480
 C         3.266410         1.730554         0.474522
 C         2.317514         0.833392         1.082963
 C         1.816466         0.808456         2.492785
 O         0.484385         0.353642         2.213804
 C         0.971557        -0.145753         0.867873
 C        -0.008046        -0.253284        -0.233082
 C         1.832406        -1.284023         1.293326
 C         2.761957        -0.309050         1.956567
 O         4.040104        -0.488200         2.462079
 H         4.178542         1.797197         1.201486
 H         3.625804         1.158106        -0.430506
 H         2.862058         2.671652        -0.002817
 H         1.886477         1.435985         3.407641
 H        -0.645085        -1.089085        -0.006983
 H        -0.473980         0.725310        -0.334724
 H         0.498164        -0.527196        -1.110683
 H         1.313784        -2.064347         2.036732
 H         2.342252        -1.981391         0.490309
 H         3.886367        -0.600647         3.417432
