19
Iteration:  3370
 C         2.876844         1.806672         0.185126
 C         2.384471         0.766760         1.075738
 C         1.882871         0.839604         2.459602
 O         0.539623         0.460859         2.145881
 C         1.088491        -0.176082         0.897928
 C         0.125916        -0.145633        -0.277748
 C         1.877043        -1.425643         1.462398
 C         2.771748        -0.338652         2.055180
 O         3.989113        -0.678547         2.656764
 H         3.902905         2.179727         0.705510
 H         3.230028         1.569640        -0.829426
 H         2.253301         2.636837         0.039681
 H         2.082064         1.589207         3.182615
 H        -0.587038        -0.969324        -0.254201
 H        -0.453157         0.930307        -0.325467
 H         0.795294        -0.310154        -1.139281
 H         1.273860        -2.023217         2.051831
 H         2.475735        -1.878562         0.613827
 H         3.848659        -0.244597         3.524984
