19
Iteration:  1709
 C         3.051059         1.818244         0.272903
 C         2.273989         0.832198         1.076070
 C         1.770683         0.824155         2.508775
 O         0.477527         0.269705         2.216711
 C         1.000759        -0.131649         0.970915
 C         0.162800        -0.120992        -0.299000
 C         1.870337        -1.390046         1.444176
 C         2.751100        -0.300817         1.982551
 O         4.093868        -0.602666         2.520982
 H         3.928367         2.243854         0.868910
 H         3.461358         1.327857        -0.605402
 H         2.396974         2.703723        -0.100326
 H         1.819313         1.860154         3.047972
 H        -0.653322        -0.853354        -0.355114
 H        -0.175614         0.923624        -0.400933
 H         0.848140        -0.321607        -1.163203
 H         1.531255        -2.220350         2.057954
 H         2.434043        -1.938057         0.621130
 H         4.063255        -0.847897         3.460319
