19
Iteration:  3802
 C         2.957603         1.809878         0.166322
 C         2.374169         0.732127         1.073398
 C         1.857502         0.818774         2.431211
 O         0.496350         0.489519         2.154018
 C         1.061071        -0.151512         0.944682
 C         0.151667        -0.054064        -0.223954
 C         1.789728        -1.398835         1.501002
 C         2.771107        -0.306006         2.080519
 O         4.083750        -0.730722         2.566716
 H         2.049267         2.237494        -0.222023
 H         3.630407         2.510326         0.703841
 H         3.409887         1.339347        -0.811741
 H         2.258927         1.606537         3.037618
 H        -0.697423        -0.739992        -0.135096
 H        -0.242252         0.913131        -0.400261
 H         0.525265        -0.302378        -1.167684
 H         1.308877        -2.006279         2.390783
 H         2.301269        -1.929714         0.726699
 H         3.992810        -1.245041         3.378288
