19
Iteration:  3413charge 0 multiplicity 1
 C         2.948181         1.912234         0.105183
 C         2.338689         0.810915         1.095867
 C         1.910953         0.839475         2.554401
 O         0.545560         0.484240         2.151135
 C         1.131697        -0.068465         0.944768
 C         0.167601        -0.280994        -0.253692
 C         1.796295        -1.370934         1.389602
 C         2.788689        -0.415377         2.037571
 O         3.933460        -0.730873         2.649861
 H         3.432696         2.833193         0.607155
 H         3.626328         1.586972        -0.683757
 H         2.176582         2.294559        -0.453221
 H         2.076222         1.482175         3.372864
 H        -0.413645        -1.197338        -0.185250
 H        -0.633106         0.668733        -0.246201
 H         0.695541        -0.383234        -1.200797
 H         1.438591        -2.095140         2.087828
 H         2.276059        -1.922686         0.533607
 H         4.045171        -0.517473         3.579592
