19
Iteration:  1034
 C         2.982271         2.046541         0.560902
 C         2.333111         0.857963         1.043193
 C         1.817322         0.560340         2.600345
 O         0.467646         0.161818         2.238523
 C         1.064952        -0.153818         0.855187
 C         0.113382        -0.101049        -0.341937
 C         1.957472        -1.338359         1.215609
 C         2.774768        -0.277379         1.905018
 O         3.950081        -0.613639         2.560482
 H         3.750303         2.015868         1.381989
 H         3.560352         1.951287        -0.392163
 H         2.460375         2.984751         0.484490
 H         2.003402         0.954527         3.519636
 H        -0.872129        -0.622412        -0.179691
 H         0.021909         0.917878        -0.697114
 H         0.585203        -0.682453        -1.076646
 H         1.527479        -2.013285         1.886349
 H         2.509694        -1.649390         0.285616
 H         4.609455         0.155432         2.652586
