19
Iteration:  2668charge 0 multiplicity 1
 C         3.331754         1.761559         0.414626
 C         2.420981         0.874303         1.153615
 C         1.793568         0.742396         2.485476
 O         0.396026         0.451480         2.184022
 C         0.914038        -0.106184         0.902278
 C        -0.057632        -0.290414        -0.213110
 C         1.780010        -1.332338         1.258883
 C         2.735812        -0.422736         2.009173
 O         4.130680        -0.431866         2.484999
 H         4.259042         1.943410         1.061454
 H         3.707017         1.209088        -0.360030
 H         2.951611         2.620528        -0.058755
 H         2.162021         1.298713         3.352818
 H        -0.618738        -1.126993         0.089812
 H        -0.714019         0.537992        -0.281454
 H         0.316039        -0.518930        -1.222510
 H         1.272440        -2.248599         1.879999
 H         2.442014        -1.631324         0.327646
 H         4.135231        -1.173979         3.082391
