19
Iteration:   955
 C         2.944371         2.029873         0.466757
 C         2.247595         0.892074         1.172810
 C         1.718437         0.624171         2.559871
 O         0.491938         0.152643         2.302479
 C         1.106944        -0.145668         0.823653
 C         0.185646        -0.055494        -0.332834
 C         1.946291        -1.337103         1.106978
 C         2.819361        -0.382388         1.914121
 O         4.082903        -0.615079         2.578858
 H         3.624323         2.591636         1.139390
 H         3.474495         1.683843        -0.499310
 H         2.216339         2.768409         0.355107
 H         1.736868         1.188891         3.599249
 H        -0.488592        -0.820980        -0.557047
 H        -0.431828         0.832386        -0.216241
 H         0.814907         0.058013        -1.225456
 H         1.244896        -1.978133         1.623716
 H         2.423365        -1.841383         0.280012
 H         3.936668        -0.674083         3.571616
