19
Iteration:  2183
 C         2.914035         1.729123         0.267166
 C         2.391196         0.745985         1.185640
 C         1.766639         0.815331         2.525278
 O         0.430362         0.372131         2.066143
 C         1.080422        -0.075962         0.914764
 C         0.184434        -0.051799        -0.301492
 C         1.868395        -1.411005         1.438033
 C         2.737695        -0.377097         2.076964
 O         4.158107        -0.523750         2.547029
 H         3.790950         2.210522         0.545456
 H         3.090356         1.302005        -0.753375
 H         2.039193         2.373970         0.152935
 H         1.942882         1.546128         3.447716
 H        -0.385454        -0.991091        -0.261960
 H        -0.444572         0.810756        -0.330288
 H         0.777770        -0.174507        -1.209141
 H         1.354487        -2.088486         2.103942
 H         2.419081        -1.914335         0.689064
 H         4.058215        -1.210444         3.236565
