19
Iteration:  4162charge 0 multiplicity 1
 C         3.160491         1.676940         0.220067
 C         2.390528         0.705500         1.039663
 C         1.884233         0.801856         2.505277
 O         0.576675         0.451234         2.227112
 C         1.078054        -0.123074         0.893305
 C        -0.049556         0.051960        -0.072415
 C         1.715061        -1.366321         1.376110
 C         2.737262        -0.392007         2.037120
 O         4.039514        -0.608670         2.429228
 H         3.759046         2.348728         0.825959
 H         3.885252         1.251133        -0.440354
 H         2.383229         2.267181        -0.465627
 H         2.013827         1.241718         3.494169
 H        -0.925039        -0.627381         0.226107
 H        -0.501757         1.080264        -0.133066
 H         0.147727        -0.304460        -1.173903
 H         1.304858        -2.149116         2.013613
 H         2.368334        -1.742905         0.638821
 H         4.086075        -1.173321         3.227691
