19
Iteration:  1755charge 0 multiplicity 1
 C         3.001845         1.805770         0.216229
 C         2.360457         0.776182         1.155711
 C         1.871056         0.742762         2.564798
 O         0.422705         0.398641         2.127185
 C         1.123230        -0.153372         0.930235
 C         0.057867        -0.116154        -0.217826
 C         1.861181        -1.322164         1.203471
 C         2.835002        -0.455131         2.117881
 O         4.012621        -0.566010         2.700794
 H         3.947191         2.285087         0.459511
 H         3.172448         1.188718        -0.793385
 H         2.310526         2.637930        -0.000886
 H         1.920697         1.508832         3.328124
 H        -0.284338        -1.113343        -0.263716
 H        -0.810794         0.596931        -0.307504
 H         0.578174        -0.025716        -1.183398
 H         1.419069        -2.223496         1.598872
 H         2.370399        -1.856967         0.410717
 H         4.450633         0.268620         2.581727
