19
Iteration:  2961charge 0 multiplicity 1
 C         2.834789         1.753391         0.109443
 C         2.367053         0.723846         1.096773
 C         1.868929         0.736259         2.538133
 O         0.480464         0.356256         2.240374
 C         1.100649        -0.073678         0.860594
 C         0.202159         0.001699        -0.301887
 C         1.829864        -1.348108         1.378720
 C         2.789046        -0.400665         2.060073
 O         4.052937        -0.580669         2.680880
 H         3.775172         2.151909         0.396728
 H         3.177101         1.087962        -0.702669
 H         2.198542         2.667374        -0.078885
 H         2.245765         1.378770         3.314433
 H        -0.814939        -0.383588        -0.149722
 H         0.213898         1.067351        -0.519044
 H         0.656312        -0.437557        -1.251690
 H         1.163477        -2.157813         2.006244
 H         2.281282        -1.820970         0.436972
 H         4.028497        -0.749935         3.621709
