19
Iteration:   280charge 0 multiplicity 1
 C         2.932376         1.994311         0.570624
 C         2.320689         0.781143         1.326130
 C         1.741008         0.568644         2.650932
 O         0.443899         0.292921         2.130066
 C         1.073833        -0.086427         0.904518
 C         0.151787        -0.094062        -0.341488
 C         1.877397        -1.292174         1.102941
 C         2.775709        -0.422526         2.007287
 O         4.141928        -0.607341         2.485748
 H         3.698149         2.523522         1.224961
 H         3.349843         1.676804        -0.367968
 H         2.159624         2.824101         0.370859
 H         1.885547         1.016922         3.568633
 H        -0.199445        -1.102030        -0.282489
 H        -0.646222         0.734774        -0.392332
 H         0.691199         0.005158        -1.374887
 H         1.230665        -2.169814         1.397581
 H         2.564396        -1.630909         0.285073
 H         4.785416        -0.315600         1.784050
