19
Iteration:  3458charge 0 multiplicity 1
 C         3.107413         1.720560         0.225378
 C         2.339135         0.762707         1.113009
 C         1.800131         0.794703         2.443924
 O         0.448948         0.408428         2.155790
 C         1.018032        -0.194535         0.927726
 C         0.065027        -0.084545        -0.259239
 C         1.859871        -1.419314         1.431304
 C         2.736047        -0.309581         2.059891
 O         4.137734        -0.487198         2.580454
 H         3.751380         2.336026         0.991744
 H         3.746290         1.108995        -0.389424
 H         2.501567         2.279403        -0.379473
 H         2.005093         1.592803         3.212427
 H        -0.871992        -0.563753         0.021567
 H        -0.325746         1.079980        -0.416143
 H         0.331384        -0.641451        -1.216108
 H         1.381801        -2.254470         1.834892
 H         2.394135        -1.980750         0.575432
 H         3.961825        -1.002435         3.390964
