19
Iteration:  4777
 C         3.086818         1.731609         0.154056
 C         2.400529         0.847270         1.113878
 C         1.813915         0.834142         2.463641
 O         0.476449         0.384963         2.157350
 C         1.040216        -0.156535         0.929706
 C         0.027536        -0.202037        -0.235940
 C         1.857243        -1.412425         1.451573
 C         2.808881        -0.302175         2.029806
 O         4.045579        -0.553382         2.588602
 H         3.729514         2.440761         0.703173
 H         3.766584         1.308735        -0.563261
 H         2.406929         2.454796        -0.366269
 H         1.879303         1.490175         3.333075
 H        -1.057498        -0.555587         0.009898
 H        -0.115959         0.895876        -0.344721
 H         0.444912        -0.670420        -1.200191
 H         1.397467        -1.949065         2.216825
 H         2.292816        -1.990504         0.610666
 H         3.853341        -0.879784         3.492886
