19
Iteration:   696charge 0 multiplicity 1
 C         3.033485         1.892816         0.346658
 C         2.329243         0.765541         1.183834
 C         1.743393         0.587213         2.639651
 O         0.419590         0.118725         2.188222
 C         1.121661        -0.118653         0.813648
 C         0.038781         0.096423        -0.236637
 C         2.005787        -1.387373         1.085222
 C         2.782297        -0.336662         1.985979
 O         4.027023        -0.454561         2.706473
 H         3.835761         2.267723         1.036685
 H         3.472411         1.634403        -0.594105
 H         2.300408         2.816403         0.237819
 H         1.983784         1.365684         3.425639
 H        -0.824571        -0.641242        -0.119753
 H        -0.371159         1.119319        -0.278177
 H         0.542421        -0.154500        -1.206654
 H         1.491449        -2.216095         1.581095
 H         2.544929        -1.679215         0.134040
 H         4.586614        -1.210109         2.367414
