19
Iteration:  4491charge 0 multiplicity 1
 C         3.243308         1.644006         0.283789
 C         2.282310         0.795583         1.084098
 C         1.877372         0.751288         2.534157
 O         0.445572         0.492823         2.235054
 C         0.941831        -0.028202         0.917666
 C        -0.064178        -0.186319        -0.238294
 C         1.822113        -1.362147         1.341122
 C         2.846403        -0.317405         1.975194
 O         4.121179        -0.554558         2.503846
 H         3.002253         1.291583        -0.683983
 H         3.114815         2.672538         0.325297
 H         4.382229         1.405028         0.493095
 H         2.131116         1.346131         3.410899
 H        -0.730693        -0.952790         0.040133
 H        -0.706617         0.710303        -0.241548
 H         0.387904        -0.398652        -1.151923
 H         1.200389        -2.043800         1.977461
 H         2.217559        -1.978171         0.496416
 H         3.913099        -0.687686         3.445302
