19
Iteration:  1394charge 0 multiplicity 1
 C         2.957220         1.852305         0.417152
 C         2.345716         0.782782         1.142440
 C         1.804222         0.625663         2.604678
 O         0.444420         0.392800         2.143780
 C         1.102396        -0.098563         0.917831
 C         0.147785        -0.125125        -0.293832
 C         1.881474        -1.390155         1.273373
 C         2.759716        -0.401284         1.989524
 O         4.069523        -0.540745         2.531993
 H         3.901974         2.246276         0.893571
 H         3.168541         1.408514        -0.664447
 H         2.281855         2.648059         0.317367
 H         2.085166         1.426302         3.210631
 H        -0.695995        -0.827668        -0.067572
 H        -0.327461         0.779717        -0.664643
 H         0.708851        -0.584128        -1.130444
 H         1.422258        -2.163166         1.834230
 H         2.375635        -1.811801         0.351417
 H         4.241159         0.220691         3.204725
