19
Iteration:  2942charge 0 multiplicity 1
 C         2.993508         1.650765         0.153085
 C         2.342747         0.790693         1.159675
 C         1.855490         0.749186         2.583287
 O         0.530621         0.432057         2.224879
 C         1.023940        -0.088964         0.944114
 C         0.177044        -0.028540        -0.254561
 C         1.903445        -1.420467         1.262069
 C         2.723705        -0.389159         2.004252
 O         3.983996        -0.518153         2.605801
 H         3.931269         2.214377         0.339061
 H         3.067334         1.235124        -0.790333
 H         2.301489         2.444414         0.250033
 H         1.847839         1.271705         3.478621
 H        -0.725615        -0.586242         0.045001
 H         0.010849         0.979890        -0.720082
 H         0.656727        -0.688987        -1.012427
 H         1.441781        -2.269422         1.705308
 H         2.522826        -1.727639         0.373364
 H         3.842373        -0.725361         3.531602
