19
Iteration:   621charge 0 multiplicity 1
 C         2.954326         1.957688         0.598343
 C         2.352150         0.771081         1.227036
 C         1.783825         0.671832         2.668049
 O         0.454911         0.450649         2.013700
 C         1.057338        -0.042544         0.877831
 C         0.159300        -0.177723        -0.294402
 C         1.928813        -1.402275         1.214305
 C         2.756948        -0.417683         2.016627
 O         4.079719        -0.665958         2.442189
 H         3.731973         2.401094         1.218545
 H         3.369352         1.816293        -0.334830
 H         1.986610         2.615242         0.513019
 H         1.526682         1.315625         3.582205
 H        -0.550495        -1.055571        -0.005032
 H        -0.562795         0.632724        -0.287606
 H         0.638399        -0.532281        -1.162028
 H         1.314513        -2.135138         1.682581
 H         2.625127        -1.792730         0.412255
 H         4.823715        -0.220591         2.098087
