19
Iteration:   588charge 0 multiplicity 1
 C         2.992650         2.074711         0.485842
 C         2.229386         0.840025         1.065740
 C         1.814688         0.699965         2.546391
 O         0.502771         0.200102         2.239657
 C         0.950820        -0.145205         0.906647
 C         0.229474        -0.036832        -0.394413
 C         1.810224        -1.406577         1.315983
 C         2.821506        -0.414533         1.976723
 O         4.070612        -0.644248         2.582306
 H         3.691834         2.486144         1.225018
 H         3.498778         1.968507        -0.438369
 H         2.252689         2.971686         0.308068
 H         1.981434         1.358050         3.396230
 H        -0.526750        -0.902900        -0.451335
 H        -0.144328         0.971054        -0.497463
 H         0.911501        -0.212623        -1.199949
 H         1.187135        -2.074199         1.900774
 H         2.408813        -2.060306         0.619244
 H         4.742168        -0.821357         1.868685
