19
Iteration:  3340
 C         3.055929         1.719409         0.160436
 C         2.399276         0.730593         1.148697
 C         1.743503         0.777445         2.483375
 O         0.397899         0.330128         2.126953
 C         1.140117        -0.147709         0.914926
 C         0.071861        -0.047239        -0.279825
 C         1.834904        -1.381776         1.468337
 C         2.795309        -0.302883         2.075379
 O         4.105970        -0.506776         2.586536
 H         4.186276         1.887047         0.418322
 H         3.065884         1.523950        -0.912237
 H         2.710911         2.791345         0.194724
 H         1.741574         1.529688         3.243081
 H        -0.827060        -0.555888        -0.020202
 H        -0.136284         0.975368        -0.394045
 H         0.400459        -0.616712        -1.166058
 H         1.257209        -2.166285         2.008945
 H         2.414002        -2.037157         0.741987
 H         4.004046        -0.750983         3.523033
