19
Iteration:   772charge 0 multiplicity 1
 C         2.908570         2.074853         0.482215
 C         2.231052         0.890318         1.145208
 C         1.797186         0.624493         2.568188
 O         0.503564         0.195292         2.313155
 C         1.054666        -0.093264         0.844352
 C         0.219119        -0.058456        -0.416429
 C         1.957586        -1.410315         1.257940
 C         2.758089        -0.380692         1.952964
 O         4.023588        -0.715334         2.493927
 H         3.614548         2.437319         1.279836
 H         3.384480         1.732991        -0.440051
 H         2.246157         3.038286         0.301661
 H         1.802494         1.255589         3.557212
 H        -0.508112        -0.953277        -0.481777
 H        -0.173389         0.955890        -0.620579
 H         0.983844        -0.081811        -1.238112
 H         1.296417        -1.993753         1.907634
 H         2.713490        -1.885680         0.523842
 H         4.453436        -0.038401         2.993405
