19
Iteration:   936charge 0 multiplicity 1
 C         2.906162         1.986226         0.456474
 C         2.227911         0.836576         1.169094
 C         1.806525         0.602555         2.624252
 O         0.458401         0.040216         2.181086
 C         1.050868        -0.049336         0.891336
 C         0.210225         0.072691        -0.381316
 C         1.984782        -1.374903         1.266693
 C         2.803015        -0.361997         1.945858
 O         4.015648        -0.618116         2.538120
 H         3.706988         2.446150         1.083131
 H         3.385230         1.520250        -0.391722
 H         2.281516         2.817440         0.058127
 H         2.097674         1.055627         3.510551
 H        -0.347424        -0.962556        -0.493096
 H        -0.442023         0.965426        -0.278696
 H         0.889049         0.352377        -1.159300
 H         1.448427        -2.145005         1.851663
 H         2.522231        -1.589571         0.250345
 H         4.361301         0.152359         3.103099
