19
Iteration:  1372charge 0 multiplicity 1
 C         2.999682         1.936210         0.324304
 C         2.322611         0.856428         1.094688
 C         1.780792         0.744271         2.544606
 O         0.486366         0.250682         2.248133
 C         1.030606        -0.172077         0.903461
 C         0.190821        -0.119899        -0.355518
 C         1.824239        -1.363238         1.384760
 C         2.768750        -0.366595         1.971764
 O         4.042941        -0.621560         2.598050
 H         3.876277         2.302761         0.948915
 H         3.382279         1.640084        -0.765900
 H         2.339521         2.742874         0.302229
 H         2.051987         1.213200         3.465071
 H        -0.518960        -0.981310        -0.531176
 H        -0.416190         0.776124        -0.363561
 H         0.897021        -0.085312        -1.199322
 H         1.172862        -2.011505         1.878585
 H         2.361713        -1.933932         0.570595
 H         4.737129         0.007397         2.456280
