19
Iteration:  4555charge 0 multiplicity 1
 C         3.161668         1.543510         0.210472
 C         2.254269         0.811546         1.081879
 C         1.848449         0.770120         2.576200
 O         0.430918         0.358064         2.211424
 C         0.961105        -0.130187         0.998383
 C         0.076565         0.022056        -0.242518
 C         1.865051        -1.425591         1.392437
 C         2.751090        -0.332692         1.981557
 O         4.136919        -0.433871         2.490871
 H         2.693965         1.522759        -0.748750
 H         3.366302         2.568627         0.435342
 H         4.204219         1.092726         0.096962
 H         2.039848         1.307654         3.510057
 H        -0.958178        -0.233720        -0.000486
 H        -0.009738         1.149161        -0.539785
 H         0.317664        -0.561984        -1.138972
 H         1.301193        -2.083194         1.962667
 H         2.232374        -1.917513         0.519913
 H         4.076113        -0.803331         3.395550
