19
Iteration:  3827charge 0 multiplicity 1
 C         2.918534         1.742800         0.142121
 C         2.420398         0.706656         1.061220
 C         1.863260         0.810356         2.424393
 O         0.530268         0.471881         2.186077
 C         0.991960        -0.186956         0.975632
 C         0.103837         0.047462        -0.250931
 C         1.779692        -1.420161         1.431998
 C         2.816106        -0.338984         2.060256
 O         4.097063        -0.643046         2.632412
 H         2.186542         1.959029        -0.630436
 H         3.284728         2.610253         0.704182
 H         3.775225         1.227164        -0.443202
 H         1.980952         1.403056         3.291110
 H        -0.977772        -0.381807        -0.118711
 H        -0.028906         1.168719        -0.551704
 H         0.413747        -0.445755        -1.176273
 H         1.450241        -2.027737         2.293668
 H         2.410682        -1.983601         0.689177
 H         4.114810        -1.194854         3.422027
