19
Iteration:   201
 C         2.951956         2.019747         0.635954
 C         2.345671         0.806477         1.244542
 C         1.738092         0.546903         2.589881
 O         0.536592         0.241293         2.127316
 C         1.227944        -0.082073         0.767286
 C         0.012252        -0.094144        -0.191561
 C         1.981499        -1.334617         0.963524
 C         2.742829        -0.444976         1.944407
 O         4.002368        -0.503420         2.617117
 H         3.756922         2.331451         1.282952
 H         3.286413         1.858664        -0.345408
 H         2.058981         2.796638         0.586407
 H         1.931525         0.911414         3.641836
 H        -0.849304        -0.600261         0.275872
 H        -0.409877         0.913378        -0.234908
 H         0.271773        -0.427168        -1.189069
 H         1.518346        -2.307695         1.257420
 H         2.510534        -1.458199         0.053200
 H         4.669155        -0.908906         2.024118
