19
Iteration:   590charge 0 multiplicity 1
 C         2.975621         2.076928         0.503288
 C         2.247725         0.848393         1.063295
 C         1.828806         0.706851         2.533311
 O         0.468270         0.218796         2.240981
 C         0.962445        -0.145328         0.901138
 C         0.219331        -0.055887        -0.388691
 C         1.827903        -1.411844         1.300392
 C         2.807789        -0.418208         1.994901
 O         4.081486        -0.653519         2.571510
 H         3.699167         2.431433         1.236829
 H         3.581353         1.950876        -0.474746
 H         2.264335         2.914019         0.339236
 H         1.988800         1.388174         3.474613
 H        -0.534321        -0.907548        -0.515157
 H        -0.139635         0.967065        -0.449979
 H         0.932971        -0.244459        -1.151874
 H         1.163537        -1.997009         1.907741
 H         2.388999        -2.089919         0.614297
 H         4.784397        -0.751283         1.844055
