19
Iteration:  3318charge 0 multiplicity 1
 C         3.152070         1.573038         0.247699
 C         2.228815         0.780302         1.156548
 C         1.829192         0.801123         2.538831
 O         0.469539         0.345517         2.186325
 C         1.028830        -0.145959         0.904428
 C         0.081360        -0.102502        -0.311545
 C         1.917869        -1.344405         1.331110
 C         2.668258        -0.351516         2.073012
 O         4.080754        -0.349968         2.579820
 H         4.258863         1.549315         0.558344
 H         3.102082         1.342611        -0.802710
 H         2.921581         2.653874         0.196778
 H         2.123967         1.358986         3.370361
 H        -0.894124        -0.417623        -0.065676
 H         0.076298         0.875143        -0.634889
 H         0.436858        -0.868249        -1.004098
 H         1.443208        -2.166329         1.926582
 H         2.187024        -1.802335         0.346684
 H         4.027109        -1.036817         3.282623
