19
Iteration:  3681
 C         3.190195         1.536324         0.201572
 C         2.329798         0.766162         1.140959
 C         1.827701         0.753414         2.502977
 O         0.439792         0.403837         2.238989
 C         0.987554        -0.134957         0.878286
 C         0.019275        -0.039381        -0.210752
 C         1.874908        -1.450824         1.315982
 C         2.755105        -0.373617         2.075650
 O         4.054941        -0.318126         2.534838
 H         3.416955         2.492884         0.696171
 H         4.164437         0.992982         0.152446
 H         2.726054         1.759865        -0.810240
 H         2.185658         1.446430         3.339191
 H        -1.090286        -0.374001         0.013753
 H         0.054001         0.959545        -0.627684
 H         0.413560        -0.656336        -1.109076
 H         1.394817        -2.198342         2.019473
 H         2.238105        -1.785019         0.386451
 H         4.130369        -0.757929         3.413508
