19
Iteration:  3276
 C         3.261173         1.551503         0.316824
 C         2.308653         0.868701         1.224229
 C         1.769759         0.771681         2.566936
 O         0.403694         0.317747         2.129378
 C         1.008416        -0.097813         0.855792
 C         0.012534        -0.185460        -0.260285
 C         1.874420        -1.303845         1.349980
 C         2.769954        -0.273356         2.057566
 O         4.095375        -0.397405         2.467547
 H         4.100328         1.513040         0.926627
 H         3.448838         0.949255        -0.576356
 H         2.891906         2.555380        -0.147686
 H         1.750703         1.323516         3.468736
 H        -0.995064        -0.477287         0.193157
 H        -0.195223         0.840686        -0.561992
 H         0.267094        -0.926715        -1.127902
 H         1.261602        -2.213543         1.817363
 H         2.495256        -1.650142         0.441892
 H         4.296631        -0.677607         3.389102
