19
Iteration:   310
 C         2.887698         1.878191         0.401602
 C         2.275134         0.807035         1.207369
 C         1.772491         0.501719         2.626910
 O         0.448719         0.126639         2.256672
 C         1.023579        -0.110356         0.964686
 C         0.242599         0.184879        -0.327107
 C         1.957675        -1.395576         1.117899
 C         2.818909        -0.409691         1.955286
 O         4.012533        -0.479367         2.589122
 H         3.760424         2.371406         0.871991
 H         3.274357         1.547259        -0.541881
 H         2.197754         2.815924         0.146597
 H         1.965164         0.936957         3.559908
 H        -0.545342        -0.544472        -0.500629
 H        -0.121922         1.232552        -0.387972
 H         0.846088         0.032545        -1.222483
 H         1.580133        -2.306365         1.621225
 H         2.494222        -1.534299         0.231309
 H         4.791104        -0.467382         2.053434
