19
Iteration:  4033charge 0 multiplicity 1
 C         2.955650         1.684658         0.059991
 C         2.413031         0.743893         1.067735
 C         1.918987         0.702834         2.485719
 O         0.595058         0.467556         2.260149
 C         1.087079        -0.131301         0.994965
 C         0.095076         0.051385        -0.136468
 C         1.772884        -1.403612         1.330936
 C         2.722070        -0.378113         2.005290
 O         3.979586        -0.608034         2.600363
 H         3.813248         1.309539        -0.462606
 H         2.089463         1.846145        -0.559861
 H         3.357263         2.709926         0.489549
 H         2.329762         1.489442         3.096051
 H        -0.944445        -0.198847         0.321872
 H         0.202332         1.137133        -0.379031
 H         0.319500        -0.413780        -1.151881
 H         1.149555        -2.251080         1.859071
 H         2.502407        -1.768850         0.532301
 H         3.781556        -0.922785         3.502520
