19
Iteration:  1481charge 0 multiplicity 1
 C         2.995232         1.827669         0.329978
 C         2.432471         0.731043         1.206915
 C         1.795216         0.681321         2.559367
 O         0.438664         0.408644         2.140599
 C         0.962705        -0.133517         0.856580
 C         0.080839        -0.158820        -0.219152
 C         1.928666        -1.376036         1.184714
 C         2.820722        -0.362218         2.033828
 O         4.066931        -0.555560         2.633423
 H         3.762867         2.481751         0.820064
 H         3.467862         1.418483        -0.577823
 H         2.251925         2.464179        -0.034761
 H         2.016073         1.408146         3.296785
 H        -0.902800        -0.534682         0.156493
 H        -0.008817         0.899648        -0.504659
 H         0.524548        -0.794474        -1.026317
 H         1.353599        -2.170745         1.632808
 H         2.220737        -1.681218         0.110999
 H         4.402114         0.266533         3.030642
