19
Iteration:   738charge 0 multiplicity 1
 C         2.864297         1.858823         0.392922
 C         2.304526         0.797307         1.282032
 C         1.676765         0.623244         2.601289
 O         0.401509         0.193008         2.238052
 C         1.068791        -0.052445         0.923592
 C         0.273482         0.074280        -0.329690
 C         2.009214        -1.334558         1.170484
 C         2.812194        -0.388380         1.973604
 O         4.094192        -0.550199         2.452228
 H         3.693084         2.399840         0.916851
 H         3.400619         1.498633        -0.534857
 H         2.064734         2.581886         0.110624
 H         1.799793         1.108116         3.609265
 H        -0.478434        -0.734295        -0.393285
 H        -0.314295         0.997904        -0.357921
 H         1.035401        -0.109125        -1.145766
 H         1.483506        -2.198313         1.638906
 H         2.716259        -1.746342         0.410731
 H         3.922908        -1.097947         3.240105
