19
Iteration:  3937charge 0 multiplicity 1
 C         3.255368         1.640949         0.326416
 C         2.380055         0.784618         1.034742
 C         1.883534         0.714628         2.460283
 O         0.458074         0.522288         2.207820
 C         0.930882        -0.022201         0.898819
 C        -0.093093        -0.192716        -0.238165
 C         1.710715        -1.393840         1.477117
 C         2.826962        -0.414763         2.052554
 O         4.132920        -0.466246         2.421035
 H         3.016613         1.729432        -0.771830
 H         3.177023         2.634516         0.828500
 H         4.357653         1.342542         0.347486
 H         2.053180         1.267351         3.398324
 H        -0.750290        -1.024843        -0.049366
 H        -0.645553         0.788169        -0.234556
 H         0.437714        -0.148819        -1.119803
 H         1.159255        -1.955162         2.270286
 H         2.259398        -1.938445         0.619565
 H         4.114477        -1.053354         3.210494
