19
Iteration:  3453
 C         3.084360         1.742335         0.229435
 C         2.328415         0.769402         1.051844
 C         1.805040         0.856373         2.479882
 O         0.455992         0.394920         2.131267
 C         0.988503        -0.142215         0.914863
 C         0.066331        -0.111357        -0.269498
 C         1.899840        -1.418084         1.432449
 C         2.759039        -0.306858         2.096164
 O         4.164214        -0.573852         2.597966
 H         3.576161         2.381509         0.878680
 H         3.805147         1.101599        -0.332818
 H         2.340493         2.369652        -0.429892
 H         1.773664         1.674206         3.160126
 H        -0.844914        -0.622975         0.107677
 H        -0.234715         0.847308        -0.311432
 H         0.312738        -0.410671        -1.262324
 H         1.325755        -2.286231         1.966167
 H         2.239289        -1.949550         0.569609
 H         3.980020        -0.985769         3.473034
