19
Iteration:  1769
 C         2.966668         1.775231         0.223595
 C         2.358473         0.781141         1.153851
 C         1.809960         0.715317         2.524576
 O         0.456285         0.466534         2.204500
 C         1.051932        -0.078677         0.843060
 C         0.101700        -0.190474        -0.253100
 C         1.940282        -1.416328         1.202763
 C         2.755906        -0.383936         2.051656
 O         4.042437        -0.550370         2.781869
 H         3.884491         2.139367         0.647653
 H         3.227848         1.300193        -0.809436
 H         2.333057         2.607221         0.092144
 H         2.150777         1.173244         3.401360
 H        -0.525747        -1.097027        -0.231089
 H        -0.564581         0.623540         0.000807
 H         0.542366         0.066246        -1.202964
 H         1.329605        -2.230826         1.622937
 H         2.449028        -1.607246         0.301021
 H         4.738910        -0.132980         2.163804
