19
Iteration:  2282
 C         3.191266         1.762291         0.379536
 C         2.362971         0.802454         1.069666
 C         1.739797         0.803785         2.502113
 O         0.420151         0.355357         2.155579
 C         1.094755        -0.204219         0.874901
 C        -0.008501        -0.207168        -0.216252
 C         1.912562        -1.329466         1.302363
 C         2.768237        -0.268314         2.018489
 O         4.030611        -0.586164         2.558128
 H         4.001584         2.159717         0.996500
 H         3.635453         1.408148        -0.576708
 H         2.497850         2.557941         0.181913
 H         1.928731         1.543847         3.304925
 H        -0.853593        -0.725525         0.205495
 H        -0.387213         0.755407        -0.429808
 H         0.311173        -0.664965        -1.122988
 H         1.489691        -2.139990         1.807351
 H         2.484726        -1.626567         0.466340
 H         4.311039         0.034753         3.283764
