19
Iteration:   467charge 0 multiplicity 1
 C         2.996187         1.958122         0.548670
 C         2.302609         0.774250         1.148799
 C         1.836030         0.633401         2.582816
 O         0.443372         0.308078         2.202854
 C         1.076723        -0.093362         0.878719
 C         0.066431        -0.052987        -0.374441
 C         1.900685        -1.413422         1.224873
 C         2.778934        -0.508334         1.967136
 O         4.079540        -0.482064         2.565234
 H         3.652894         2.290426         1.397741
 H         3.526834         1.676423        -0.390300
 H         2.398345         2.954271         0.313959
 H         1.988194         1.235039         3.462725
 H        -0.742396        -0.827635        -0.266114
 H        -0.401075         0.940377        -0.428564
 H         0.605993        -0.152393        -1.345121
 H         1.360717        -2.202664         1.703132
 H         2.392219        -1.876537         0.331918
 H         4.725634        -0.901305         1.928992
