19
Iteration:  3503charge 0 multiplicity 1
 C         3.248335         1.554421         0.261379
 C         2.270763         0.810837         1.171638
 C         1.793736         0.755368         2.561365
 O         0.390268         0.351165         2.246003
 C         1.029576        -0.137631         0.811603
 C         0.037899        -0.146356        -0.248483
 C         1.833267        -1.347208         1.316691
 C         2.752636        -0.347117         2.047488
 O         4.108447        -0.300725         2.512768
 H         4.325962         1.505218         0.642720
 H         3.108209         0.926732        -0.600009
 H         2.994977         2.519224         0.019434
 H         1.843971         1.346856         3.523139
 H        -1.018380        -0.391249         0.002197
 H         0.140506         0.954701        -0.683532
 H         0.476672        -0.777510        -1.103018
 H         1.333946        -2.165217         1.770390
 H         2.274313        -1.969126         0.496291
 H         4.308606        -0.524815         3.442733
