19
Iteration:   601
 C         2.934260         2.040406         0.565882
 C         2.338012         0.810792         1.148082
 C         1.834540         0.687652         2.480390
 O         0.369709         0.330150         2.212051
 C         1.087785        -0.144348         0.867387
 C         0.188969        -0.136977        -0.346439
 C         1.879392        -1.384970         1.294801
 C         2.774893        -0.386946         2.022347
 O         4.086032        -0.683398         2.511217
 H         3.643284         2.340222         1.338638
 H         3.509331         1.802000        -0.413934
 H         2.227890         2.863280         0.412323
 H         2.075076         1.309574         3.453604
 H        -0.685287        -0.847776        -0.519605
 H        -0.298298         0.827856        -0.524488
 H         0.907220        -0.193311        -1.133705
 H         1.364730        -2.026805         1.988655
 H         2.219378        -1.932345         0.384936
 H         4.653971        -0.400753         1.767518
