19
Iteration:  1404charge 0 multiplicity 1
 C         2.959981         1.856542         0.385517
 C         2.294581         0.759876         1.196709
 C         1.802795         0.622726         2.611575
 O         0.439311         0.450729         2.099437
 C         1.025351        -0.146725         0.845363
 C         0.132035        -0.164019        -0.251106
 C         1.926385        -1.384826         1.266273
 C         2.826621        -0.382927         2.030796
 O         4.086594        -0.520397         2.514952
 H         3.964900         2.153134         0.871537
 H         3.329117         1.557888        -0.680318
 H         2.332927         2.713805         0.297705
 H         1.962842         1.324868         3.402527
 H        -0.845845        -0.688419         0.058292
 H         0.011570         0.903835        -0.439433
 H         0.538109        -0.699998        -1.116258
 H         1.348107        -2.204577         1.631882
 H         2.522603        -1.670597         0.322895
 H         4.174559        -0.277077         3.505702
