19
Iteration:  3572charge 0 multiplicity 1
 C         3.064154         1.802909         0.217233
 C         2.385687         0.706132         1.038364
 C         1.894223         0.721985         2.472818
 O         0.511946         0.456073         2.132817
 C         1.006320        -0.040585         0.958514
 C         0.033668        -0.265548        -0.308701
 C         1.816528        -1.338217         1.405197
 C         2.782798        -0.371841         2.026539
 O         4.082870        -0.512162         2.692960
 H         4.066671         1.906604         0.182102
 H         2.690553         1.540661        -0.778154
 H         2.635738         2.831747         0.516960
 H         2.167310         1.394222         3.240567
 H        -0.686543        -1.231287        -0.167484
 H        -0.557804         0.628468        -0.366771
 H         0.643611        -0.148216        -1.291910
 H         1.240189        -1.926649         2.133471
 H         2.064516        -2.039998         0.707429
 H         3.794558        -0.703929         3.601712
