19
Iteration:  3297charge 0 multiplicity 1
 C         3.312048         1.585436         0.247401
 C         2.294341         0.742000         1.177742
 C         1.712979         0.747197         2.584216
 O         0.422338         0.386317         2.266460
 C         0.959353        -0.105094         0.909730
 C         0.124218        -0.147723        -0.225727
 C         1.934776        -1.356698         1.234615
 C         2.645399        -0.332359         2.024592
 O         4.047436        -0.295628         2.497616
 H         4.321107         1.454924         0.605742
 H         3.246285         1.134513        -0.732790
 H         3.018737         2.626854        -0.060646
 H         1.823393         1.344312         3.435433
 H        -0.867745        -0.468193         0.092911
 H         0.055624         0.746493        -0.711219
 H         0.547474        -1.059855        -0.726024
 H         1.338703        -2.256420         1.667108
 H         2.501540        -1.674760         0.282499
 H         4.061681        -0.948076         3.205038
