19
Iteration:  4819
 C         2.988985         1.880502         0.186475
 C         2.362415         0.810058         1.100964
 C         1.910144         0.854655         2.465580
 O         0.455418         0.597145         2.109740
 C         1.078751        -0.172242         1.002424
 C         0.118828        -0.359263        -0.198247
 C         1.894115        -1.351375         1.389247
 C         2.777348        -0.405871         1.967730
 O         3.968094        -0.693102         2.652185
 H         4.055221         1.925787         0.174170
 H         2.825464         1.590266        -0.788158
 H         2.547164         2.902996         0.365203
 H         2.223373         1.564527         3.234273
 H        -0.553759        -1.162986        -0.075813
 H        -0.407098         0.577267        -0.387941
 H         0.777044        -0.598799        -1.000744
 H         1.334446        -2.103888         1.977777
 H         2.310218        -1.861747         0.456736
 H         3.911781        -0.445042         3.594230
