19
Iteration:  1823
 C         2.994717         1.870179         0.283362
 C         2.352580         0.783110         1.130339
 C         1.774586         0.794488         2.541363
 O         0.447497         0.262555         2.147563
 C         1.042642        -0.111517         0.852617
 C         0.103652        -0.110867        -0.278971
 C         1.926351        -1.377549         1.427056
 C         2.774832        -0.324647         2.057813
 O         4.077682        -0.560517         2.498646
 H         3.775706         2.185293         0.956972
 H         3.598860         1.451575        -0.614165
 H         2.452424         2.753861         0.133974
 H         1.933056         1.495822         3.328451
 H        -0.742200        -0.724935         0.021086
 H        -0.230236         0.860901        -0.591033
 H         0.635652        -0.481727        -1.126159
 H         1.390524        -2.089990         2.052667
 H         2.461513        -1.925393         0.698694
 H         4.055920        -1.108929         3.341513
