19
Iteration:  3819
 C         2.891374         1.736903         0.125418
 C         2.394433         0.708586         1.002931
 C         1.875233         0.867978         2.458584
 O         0.477298         0.485038         2.194144
 C         1.010382        -0.160431         0.933978
 C         0.068587         0.021228        -0.291154
 C         1.834831        -1.411333         1.505462
 C         2.871025        -0.416027         2.092374
 O         4.117303        -0.685739         2.623878
 H         2.194277         2.311137        -0.587165
 H         3.330969         2.475732         0.808502
 H         3.707255         1.420562        -0.410073
 H         1.850233         1.647732         3.328974
 H        -0.932589        -0.442462        -0.067855
 H        -0.045754         1.225647        -0.412433
 H         0.624872        -0.388229        -1.271323
 H         1.313334        -1.995778         2.203181
 H         2.415233        -2.011955         0.710475
 H         4.051408        -1.269019         3.388693
