19
Iteration:  2395
 C         2.933741         1.773237         0.116536
 C         2.341048         0.799219         1.125504
 C         1.879058         0.736278         2.528510
 O         0.449268         0.320056         2.229107
 C         1.077867        -0.161370         0.878763
 C         0.201662        -0.064062        -0.227135
 C         1.801428        -1.386858         1.329467
 C         2.803505        -0.376003         2.010159
 O         4.035250        -0.479973         2.683792
 H         3.892968         2.243790         0.664605
 H         3.568733         1.276974        -0.719727
 H         2.278979         2.544905        -0.178690
 H         1.965186         1.443710         3.358518
 H        -0.832172        -0.481673        -0.201500
 H         0.027770         1.066845        -0.336812
 H         0.789789        -0.325550        -1.149483
 H         1.329562        -1.970318         2.044967
 H         2.299168        -1.813488         0.396721
 H         3.835060        -1.343887         3.090323
