19
Iteration:  2582charge 0 multiplicity 1
 C         2.794976         1.762980         0.129115
 C         2.335086         0.783495         1.189995
 C         1.869165         0.701389         2.550026
 O         0.524716         0.419098         2.256937
 C         1.113730        -0.045571         0.890629
 C         0.214381         0.001311        -0.293254
 C         1.910015        -1.436937         1.324762
 C         2.769075        -0.408489         2.005982
 O         3.984811        -0.640662         2.613617
 H         3.724859         2.185472         0.683136
 H         3.224361         1.137610        -0.726113
 H         2.127930         2.514138        -0.186868
 H         2.235103         1.395084         3.279510
 H        -0.719816        -0.432997        -0.154598
 H         0.075055         0.997936        -0.626604
 H         0.807368        -0.538907        -1.038847
 H         1.255935        -2.016024         1.940565
 H         2.582225        -1.780153         0.531356
 H         3.824945        -0.292008         3.517093
