19
Iteration:   131
 C         2.764439         1.921036         0.450860
 C         2.303575         0.789499         1.306514
 C         1.713371         0.518044         2.668354
 O         0.418316         0.156529         2.232595
 C         1.061907        -0.079901         0.918958
 C         0.361709         0.185730        -0.338017
 C         1.983663        -1.364443         1.125145
 C         2.793964        -0.443636         1.994998
 O         4.086102        -0.599063         2.426029
 H         3.643929         2.425456         0.925337
 H         3.110242         1.610502        -0.609765
 H         1.984769         2.644176         0.367681
 H         1.790511         0.874731         3.657682
 H        -0.521796        -0.420954        -0.297245
 H         0.022897         1.205573        -0.462776
 H         1.058767        -0.096103        -1.138256
 H         1.571337        -2.198631         1.637535
 H         2.384406        -1.655146         0.154525
 H         4.457609         0.284387         2.420919
