19
Iteration:  1238charge 0 multiplicity 1
 C         2.987633         1.888062         0.539282
 C         2.332664         0.823501         1.267185
 C         1.755141         0.639300         2.593871
 O         0.391858         0.334865         2.049842
 C         1.088374        -0.134131         0.872452
 C         0.104393        -0.128135        -0.283133
 C         1.933588        -1.349747         1.226687
 C         2.790789        -0.396351         2.007427
 O         4.133920        -0.506303         2.444015
 H         3.965840         2.345243         0.824590
 H         3.250265         1.365240        -0.395521
 H         2.199482         2.619505         0.271759
 H         1.820465         1.203744         3.538180
 H        -0.893939        -0.550569         0.035313
 H         0.045796         0.919944        -0.696580
 H         0.421190        -0.765330        -1.139286
 H         1.534419        -2.174318         1.869096
 H         2.550848        -1.681095         0.394778
 H         4.150628        -0.721015         3.413334
