19
Iteration:  3770
 C         3.066105         1.759124         0.194462
 C         2.360953         0.836073         1.078880
 C         1.893571         0.759873         2.538081
 O         0.490825         0.558595         2.222934
 C         1.035654        -0.040962         0.936491
 C         0.131688        -0.248876        -0.256133
 C         1.713399        -1.376285         1.354635
 C         2.757395        -0.382997         2.033874
 O         4.064813        -0.635365         2.559156
 H         2.558438         2.716458         0.254023
 H         4.133396         1.995468         0.397682
 H         3.021789         1.359802        -0.925933
 H         2.286410         1.408526         3.320528
 H        -0.465668        -1.199550         0.071635
 H        -0.647995         0.554956        -0.511039
 H         0.702534        -0.509060        -1.140714
 H         1.262450        -2.130382         2.133694
 H         2.107700        -1.899299         0.501995
 H         4.014939        -0.802780         3.531551
