19
Iteration:  1717charge 0 multiplicity 1
 C         3.064604         1.839615         0.236268
 C         2.219735         0.832829         1.101364
 C         1.785665         0.785260         2.551071
 O         0.443139         0.311495         2.251001
 C         1.014912        -0.229210         0.866724
 C         0.175058        -0.083885        -0.305000
 C         1.957761        -1.377103         1.459185
 C         2.766720        -0.288531         1.993785
 O         4.074948        -0.642707         2.515230
 H         3.975585         2.180267         0.803678
 H         3.407586         1.345696        -0.609073
 H         2.496578         2.725312        -0.181360
 H         1.977734         1.741775         3.094720
 H        -0.600310        -0.939375        -0.262076
 H        -0.345263         0.854720        -0.202387
 H         0.752959        -0.241268        -1.236753
 H         1.271410        -1.948944         2.126369
 H         2.505114        -1.809591         0.610624
 H         3.822532        -0.437356         3.466051
