19
Iteration:  4029charge 0 multiplicity 1
 C         2.940990         1.689884         0.070696
 C         2.436796         0.778063         1.043930
 C         1.925263         0.710645         2.489680
 O         0.553129         0.473129         2.266588
 C         1.086004        -0.121263         0.972312
 C         0.104178         0.047179        -0.122634
 C         1.783523        -1.422459         1.350887
 C         2.778188        -0.392671         2.000258
 O         3.978269        -0.633433         2.612484
 H         3.726808         1.188048        -0.528652
 H         2.052880         1.868076        -0.556316
 H         3.318034         2.628205         0.420484
 H         2.218549         1.540218         3.171742
 H        -0.946479        -0.144647         0.218810
 H         0.168324         1.117844        -0.356306
 H         0.326011        -0.484303        -1.139284
 H         1.195595        -2.157600         1.735241
 H         2.313930        -1.644226         0.483737
 H         3.839046        -0.894022         3.540132
