19
Iteration:   864
 C         3.040580         2.095111         0.483083
 C         2.207456         0.993188         1.172007
 C         1.850473         0.573102         2.548391
 O         0.401461         0.050894         2.297058
 C         1.090295        -0.089715         0.860183
 C         0.136654        -0.086328        -0.376797
 C         1.981563        -1.414382         1.119868
 C         2.814510        -0.342491         1.939168
 O         3.976528        -0.548893         2.621883
 H         3.813231         2.444454         1.157171
 H         3.418278         1.667150        -0.477352
 H         2.490654         3.108783         0.329732
 H         1.954307         1.021465         3.530560
 H        -0.770255        -0.541234        -0.083343
 H        -0.053015         0.995323        -0.409028
 H         0.605556        -0.319340        -1.335173
 H         1.440277        -2.211089         1.634927
 H         2.474175        -1.617149         0.221993
 H         4.481130        -1.402855         2.493015
