19
Iteration:  2532charge 0 multiplicity 1
 C         2.933863         1.842171         0.225173
 C         2.345325         0.772299         1.127323
 C         1.863371         0.809706         2.505849
 O         0.507593         0.438491         2.113738
 C         1.114392        -0.114352         0.870741
 C         0.122152        -0.092063        -0.285198
 C         1.882433        -1.439904         1.402200
 C         2.796677        -0.346031         2.090121
 O         4.057263        -0.652570         2.614327
 H         3.827359         2.122654         0.591276
 H         2.939365         1.559125        -0.797087
 H         2.120342         2.626595         0.287888
 H         1.994320         1.437744         3.441028
 H        -0.623962        -0.906591         0.064715
 H        -0.461668         0.871265        -0.327702
 H         0.544092        -0.374629        -1.272124
 H         1.206435        -1.954656         2.122829
 H         2.281282        -1.801096         0.501715
 H         3.815063        -1.406642         3.212092
