19
Iteration:  2039charge 0 multiplicity 1
 C         3.141362         1.712614         0.322497
 C         2.305491         0.785023         1.188052
 C         1.846796         0.701237         2.582862
 O         0.436068         0.299782         2.224628
 C         1.043797        -0.143603         0.903439
 C         0.120048        -0.177279        -0.306257
 C         1.831799        -1.303723         1.270927
 C         2.774006        -0.263632         1.978856
 O         4.021336        -0.403908         2.515287
 H         3.915576         2.173559         0.935116
 H         3.575045         1.151904        -0.482470
 H         2.563198         2.597699        -0.107716
 H         2.065070         1.398467         3.489483
 H        -0.783985        -0.755031        -0.053863
 H        -0.101463         0.853043        -0.658787
 H         0.576992        -0.783692        -1.112032
 H         1.390934        -2.180110         1.800227
 H         2.246986        -1.813294         0.398435
 H         3.839301        -0.770030         3.378490
