19
Iteration:   577charge 0 multiplicity 1
 C         2.961709         2.048262         0.430833
 C         2.273855         0.820920         1.138941
 C         1.836850         0.625318         2.521309
 O         0.551353         0.132668         2.263071
 C         1.060168        -0.130059         0.885612
 C         0.220785         0.031533        -0.395597
 C         1.807644        -1.403573         1.352509
 C         2.788706        -0.338050         1.923666
 O         3.987587        -0.588455         2.612757
 H         3.759178         2.406169         1.106763
 H         3.410590         1.760231        -0.484058
 H         2.180492         2.896496         0.228631
 H         1.948662         1.278800         3.346471
 H        -0.688688        -0.677143        -0.421692
 H        -0.309231         0.953255        -0.577023
 H         0.896257        -0.181974        -1.202858
 H         1.439587        -2.169633         2.005965
 H         2.197256        -1.736061         0.338348
 H         4.512758        -1.171300         2.079187
