19
Iteration:   113
 C         2.800961         1.999630         0.534749
 C         2.291038         0.775287         1.310463
 C         1.752675         0.462143         2.702852
 O         0.316662         0.333196         2.146518
 C         1.084857        -0.137652         0.869120
 C         0.199909         0.073702        -0.384649
 C         1.936878        -1.409401         1.140994
 C         2.846234        -0.417467         1.973496
 O         4.260965        -0.645522         2.489026
 H         3.583996         2.577166         0.945883
 H         3.088950         1.687287        -0.393531
 H         1.919772         2.746684         0.330813
 H         2.057105         0.944674         3.699729
 H        -0.594306        -0.688829        -0.667167
 H        -0.317033         0.996649        -0.131930
 H         0.848685         0.259599        -1.212576
 H         1.392743        -2.360917         1.350494
 H         2.530038        -1.640100         0.280775
 H         4.665687         0.230902         2.578630
