19
Iteration:  3459charge 0 multiplicity 1
 C         3.115501         1.712295         0.231491
 C         2.339944         0.760244         1.121843
 C         1.796922         0.785118         2.439505
 O         0.447499         0.410764         2.160681
 C         1.025835        -0.203591         0.927551
 C         0.063020        -0.075579        -0.255707
 C         1.853281        -1.417748         1.426223
 C         2.737839        -0.314296         2.053904
 O         4.128444        -0.470105         2.575857
 H         3.774782         2.322323         0.983940
 H         3.750368         1.114575        -0.413494
 H         2.489709         2.308083        -0.409437
 H         2.051720         1.574212         3.232908
 H        -0.901649        -0.569937         0.015063
 H        -0.315117         1.077100        -0.437178
 H         0.351869        -0.678005        -1.208519
 H         1.369518        -2.259563         1.855668
 H         2.429704        -1.953655         0.583930
 H         3.965631        -1.008555         3.384757
