19
Iteration:  4544charge 0 multiplicity 1
 C         3.193551         1.519970         0.204650
 C         2.258566         0.752964         1.137272
 C         1.819866         0.802013         2.466558
 O         0.490886         0.307901         2.285156
 C         1.016574        -0.120788         0.853802
 C        -0.015360         0.057328        -0.244975
 C         1.815462        -1.414113         1.368560
 C         2.786978        -0.346080         2.128418
 O         4.085120        -0.380377         2.465572
 H         2.915522         1.610294        -0.815076
 H         3.184891         2.502005         0.630481
 H         4.213855         0.987243         0.242387
 H         2.030714         1.482708         3.297831
 H        -0.914622        -0.343218         0.163135
 H        -0.022853         1.210494        -0.475463
 H         0.379095        -0.498677        -1.114960
 H         1.292263        -2.086947         1.951583
 H         2.363862        -1.873328         0.575070
 H         4.198496        -0.913309         3.271147
