19
Iteration:  3084
 C         3.314019         1.658916         0.357464
 C         2.323630         0.740091         1.098481
 C         1.751296         0.848165         2.503795
 O         0.389292         0.327631         2.196327
 C         1.014607        -0.172017         0.828780
 C        -0.102760        -0.137546        -0.211579
 C         1.925491        -1.346858         1.305065
 C         2.756514        -0.293719         2.120875
 O         4.099216        -0.433294         2.476840
 H         4.295102         1.655758         1.012894
 H         3.660599         1.031898        -0.605701
 H         3.002999         2.707609         0.235950
 H         1.759396         1.776426         3.111645
 H        -1.020803        -0.727590         0.004197
 H        -0.338911         0.960590        -0.410963
 H         0.208372        -0.495970        -1.168561
 H         1.400219        -2.215895         1.904272
 H         2.604884        -1.812975         0.468756
 H         4.181334        -0.820792         3.349065
