19
Iteration:  4301
 C         3.277089         1.656647         0.344975
 C         2.389282         0.680422         1.064606
 C         1.872896         0.802040         2.467469
 O         0.565126         0.450422         2.229780
 C         0.935089        -0.036851         0.976390
 C        -0.180057        -0.106379        -0.216639
 C         1.651683        -1.314109         1.343411
 C         2.776917        -0.387513         2.018486
 O         4.159929        -0.501563         2.432095
 H         4.280839         1.387341         0.726991
 H         3.381836         1.526604        -0.794780
 H         3.041708         2.611262         0.544351
 H         2.239435         1.474545         3.256869
 H        -0.644446        -0.982676         0.122103
 H        -0.892684         0.637902        -0.188179
 H         0.292022        -0.285298        -1.197572
 H         1.214018        -1.976934         2.107132
 H         2.101460        -1.888517         0.536728
 H         4.081176        -1.277562         3.017007
