19
Iteration:  3998
 C         2.938413         1.680277         0.067004
 C         2.368823         0.851431         1.101076
 C         1.884329         0.774932         2.540005
 O         0.527703         0.479166         2.240021
 C         1.028490        -0.036163         0.891171
 C         0.044302        -0.014436        -0.235054
 C         1.842552        -1.355726         1.431573
 C         2.815940        -0.320338         2.030525
 O         4.113256        -0.824634         2.605647
 H         3.144214         1.065309        -0.770927
 H         2.214034         2.410393        -0.244370
 H         3.828124         2.279612         0.436271
 H         1.996465         1.514977         3.356216
 H        -1.005285        -0.440589        -0.028079
 H        -0.213299         1.020037        -0.502188
 H         0.437079        -0.637651        -1.157700
 H         1.226840        -2.098078         1.969786
 H         2.391704        -1.809007         0.630127
 H         4.027761        -0.811040         3.578411
