19
Iteration:  1840charge 0 multiplicity 1
 C         3.016743         1.796144         0.443941
 C         2.306213         0.759966         1.159245
 C         1.813939         0.695687         2.526779
 O         0.439871         0.461988         2.132869
 C         1.063452        -0.199346         0.909134
 C         0.115377        -0.185341        -0.293447
 C         1.906373        -1.370533         1.312649
 C         2.789735        -0.342616         2.034760
 O         4.090357        -0.525031         2.487364
 H         3.816415         2.491045         0.775455
 H         3.267165         1.327333        -0.451594
 H         2.078960         2.411420         0.120450
 H         1.909340         1.395833         3.353393
 H        -0.912259        -0.525862        -0.039613
 H         0.022018         0.915088        -0.627124
 H         0.519653        -0.738304        -1.193869
 H         1.359671        -2.123519         1.931517
 H         2.447839        -1.695462         0.335294
 H         4.236172        -0.370219         3.463314
