19
Iteration:  1529
 C         3.006773         1.882822         0.259664
 C         2.386583         0.821428         1.058455
 C         1.794805         0.806530         2.495097
 O         0.444220         0.244764         2.212778
 C         0.975286        -0.195151         0.903077
 C         0.190615        -0.118939        -0.260116
 C         1.874800        -1.337255         1.451177
 C         2.777303        -0.297155         1.942816
 O         4.077500        -0.569558         2.596226
 H         3.820639         2.225727         0.864764
 H         3.466520         1.423710        -0.708999
 H         2.360877         2.745896        -0.031165
 H         1.674990         1.344597         3.510942
 H        -0.539450        -0.890505        -0.458163
 H        -0.303089         0.859330        -0.054956
 H         0.869978        -0.015619        -1.113363
 H         1.301379        -2.017466         2.111945
 H         2.285052        -1.753109         0.591070
 H         4.010668        -1.545899         2.853024
