19
Iteration:  1151
 C         2.883076         1.916062         0.411693
 C         2.372450         0.830761         1.242774
 C         1.777439         0.658829         2.598153
 O         0.502421         0.278020         2.064572
 C         1.085879        -0.079331         0.821597
 C         0.088175        -0.051162        -0.251007
 C         1.963948        -1.387362         1.160213
 C         2.843897        -0.391286         2.026047
 O         4.047546        -0.620898         2.596374
 H         3.667048         2.488991         0.941073
 H         3.163541         1.628761        -0.608816
 H         2.105358         2.585623         0.244261
 H         1.841348         1.037407         3.557125
 H        -0.454610        -0.986118        -0.345942
 H        -0.580860         0.807993        -0.075944
 H         0.588352         0.114345        -1.223589
 H         1.583401        -2.258198         1.720106
 H         2.468014        -1.602956         0.229874
 H         4.013943        -0.368408         3.578871
