19
Iteration:  2789
 C         2.858143         1.697317         0.119459
 C         2.312931         0.802165         1.130722
 C         1.853343         0.791623         2.553328
 O         0.516065         0.396765         2.226053
 C         1.059998        -0.101061         0.898993
 C         0.169372         0.014696        -0.315745
 C         1.900859        -1.369599         1.296784
 C         2.831742        -0.400156         2.066621
 O         4.062731        -0.646566         2.679252
 H         3.678513         2.334565         0.664351
 H         3.167863         1.401251        -0.859336
 H         2.020797         2.384542        -0.125883
 H         1.995956         1.546678         3.424362
 H        -0.787655        -0.373039        -0.062307
 H        -0.115774         1.060043        -0.351539
 H         0.461811        -0.376683        -1.306404
 H         1.586210        -2.057139         2.057356
 H         2.430998        -1.872043         0.447130
 H         3.838506        -1.345017         3.340452
