19
Iteration:  3404charge 0 multiplicity 1
 C         2.900262         1.912505         0.068237
 C         2.360938         0.834065         1.078166
 C         1.918400         0.779718         2.503705
 O         0.551935         0.517081         2.184229
 C         1.052384        -0.088351         0.907202
 C         0.163958        -0.265318        -0.225384
 C         1.808444        -1.334199         1.390561
 C         2.776579        -0.435886         2.042992
 O         4.005126        -0.737521         2.708854
 H         3.423581         2.629183         0.863504
 H         3.632731         1.435194        -0.567925
 H         2.084863         2.462359        -0.354481
 H         2.286669         1.397553         3.327561
 H        -0.277721        -1.259722        -0.223274
 H        -0.638822         0.524414        -0.629755
 H         0.913017        -0.266268        -1.084453
 H         1.172517        -2.067529         1.845924
 H         2.225742        -1.904443         0.488677
 H         3.864288        -0.326977         3.573892
