19
Iteration:  3754charge 0 multiplicity 1
 C         3.151930         1.725176         0.227412
 C         2.351663         0.732911         1.101383
 C         1.872729         0.803020         2.485832
 O         0.473031         0.504982         2.245218
 C         0.945854        -0.049488         0.945089
 C         0.015903        -0.279673        -0.238435
 C         1.827946        -1.270570         1.370917
 C         2.814926        -0.400579         2.002902
 O         4.064778        -0.586268         2.552381
 H         2.943795         2.845365         0.264829
 H         4.151593         1.385266         0.478227
 H         2.934349         1.465789        -0.750843
 H         2.061530         1.473522         3.359699
 H        -0.625369        -1.063897        -0.258508
 H        -0.484364         0.588797        -0.558200
 H         0.638233        -0.375216        -1.154042
 H         1.130722        -1.892605         1.873137
 H         2.334782        -1.656280         0.438022
 H         3.907336        -0.666864         3.518415
