19
Iteration:  1574
 C         2.988696         1.748368         0.267827
 C         2.390200         0.762742         1.186474
 C         1.801923         0.776165         2.567317
 O         0.498478         0.420403         2.129859
 C         1.098886        -0.111230         0.944253
 C         0.097064        -0.155089        -0.307747
 C         1.880598        -1.333277         1.273080
 C         2.726033        -0.405081         2.065698
 O         4.036377        -0.555847         2.662169
 H         3.924370         2.111155         0.724954
 H         3.076347         1.412317        -0.783779
 H         2.180868         2.582532         0.183759
 H         2.092832         1.042475         3.559053
 H        -0.387266        -1.164137        -0.282713
 H        -0.653445         0.647804        -0.338713
 H         0.514580        -0.285913        -1.292527
 H         1.297539        -2.112676         1.824445
 H         2.315194        -1.591000         0.343290
 H         4.649301         0.061223         2.148331
