19
Iteration:  3234
 C         3.169754         1.869233         0.314102
 C         2.391829         0.724381         1.009488
 C         1.801555         0.812762         2.423289
 O         0.484329         0.419191         2.161209
 C         0.999479        -0.245549         0.976446
 C         0.072607        -0.171703        -0.179294
 C         1.802459        -1.389573         1.370748
 C         2.774696        -0.366526         2.015662
 O         4.029901        -0.529453         2.575989
 H         3.839447         2.434962         0.916444
 H         3.872445         1.331659        -0.424285
 H         2.437237         2.490510        -0.428301
 H         2.072010         1.485763         3.220579
 H        -0.850192        -0.939859        -0.141334
 H        -0.470923         0.840871        -0.226542
 H         0.592530        -0.240239        -1.258272
 H         1.379449        -2.178512         2.061711
 H         2.388010        -1.773931         0.532620
 H         3.732407        -0.556451         3.495778
