19
Iteration:   744
 C         2.891838         1.898504         0.407194
 C         2.294821         0.815613         1.222067
 C         1.713983         0.655254         2.571485
 O         0.395807         0.153848         2.263534
 C         1.044091        -0.074215         0.949618
 C         0.296684         0.057932        -0.338981
 C         1.993342        -1.339074         1.191368
 C         2.779564        -0.355035         1.981499
 O         4.085213        -0.595145         2.450824
 H         3.642738         2.456146         0.937357
 H         3.331468         1.483369        -0.507672
 H         2.110539         2.593063         0.145961
 H         1.760822         1.057130         3.525972
 H        -0.408763        -0.757807        -0.426801
 H        -0.218459         1.027496        -0.450923
 H         1.073854        -0.049217        -1.082395
 H         1.535434        -2.185013         1.712684
 H         2.519733        -1.599749         0.272299
 H         4.149028        -0.951714         3.343271
