19
Iteration:     8charge 0 multiplicity 1
 C         2.963146         2.032572         0.602250
 C         2.282199         0.882849         1.234914
 C         1.754456         0.574885         2.612849
 O         0.466602         0.158550         2.137324
 C         1.101154        -0.081238         0.845782
 C         0.089494         0.000104        -0.240236
 C         1.975064        -1.383579         1.001927
 C         2.791233        -0.424044         2.004227
 O         4.059570        -0.560392         2.448245
 H         3.733730         2.446460         1.309340
 H         3.356617         1.803219        -0.480749
 H         2.184842         2.751255         0.517422
 H         1.968930         0.978235         3.673313
 H        -0.361475        -0.987492        -0.082370
 H        -0.536792         0.951235        -0.265961
 H         0.589356        -0.163531        -1.244581
 H         1.697456        -2.243475         1.580100
 H         2.752457        -1.565182         0.218682
 H         4.080652        -0.838979         3.365799
