19
Iteration:  4607
 C         2.922044         1.778332         0.205593
 C         2.390179         0.773931         1.078441
 C         1.900375         0.823939         2.459907
 O         0.583111         0.474122         2.210334
 C         1.030589        -0.115663         0.920122
 C         0.071935        -0.153801        -0.297196
 C         1.854940        -1.314126         1.449662
 C         2.812798        -0.325158         2.085414
 O         4.025291        -0.749073         2.585793
 H         2.263976         1.952221        -0.684430
 H         2.986737         2.781684         0.784032
 H         3.887290         1.698894        -0.152098
 H         1.965493         1.749276         3.019802
 H        -0.776269        -0.813064        -0.110189
 H        -0.408168         0.825095        -0.512444
 H         0.632691        -0.569565        -1.192013
 H         1.029391        -1.953260         1.903372
 H         2.196015        -1.866954         0.599972
 H         4.072164        -1.088862         3.496549
