19
Iteration:  2999
 C         2.917637         1.809698         0.236734
 C         2.351558         0.743451         1.043999
 C         1.858611         0.775158         2.421005
 O         0.472450         0.461318         2.167248
 C         1.147972        -0.167515         0.861818
 C         0.201986        -0.063023        -0.237268
 C         1.850059        -1.385415         1.513142
 C         2.771303        -0.372701         2.059460
 O         4.014150        -0.660991         2.565346
 H         3.629313         2.503211         0.759265
 H         3.299416         1.463150        -0.617476
 H         2.122073         2.325405        -0.170594
 H         1.914977         1.551671         3.251203
 H        -0.673895        -0.722975        -0.125970
 H        -0.232624         0.974568        -0.084858
 H         0.676563        -0.159043        -1.189559
 H         1.400743        -2.068521         2.126564
 H         2.482701        -1.854219         0.776221
 H         3.778024        -0.969822         3.472623
