19
Iteration:  3256charge 0 multiplicity 1
 C         3.265544         1.663602         0.327678
 C         2.284680         0.811555         1.077477
 C         1.717007         0.817359         2.498438
 O         0.444631         0.333747         2.137755
 C         1.100746        -0.135410         0.854492
 C        -0.015242        -0.130682        -0.184952
 C         1.904330        -1.391521         1.374801
 C         2.753261        -0.290953         2.112777
 O         4.051299        -0.492158         2.472613
 H         3.991318         2.031396         1.025919
 H         3.813189         1.227969        -0.573295
 H         2.542157         2.494768        -0.122395
 H         1.897261         1.554444         3.311426
 H        -0.962708        -0.775504         0.114277
 H        -0.456107         0.891246        -0.515542
 H         0.402254        -0.575754        -1.203439
 H         1.405991        -2.068140         2.140023
 H         2.464775        -1.917916         0.585476
 H         4.209194        -0.525241         3.446843
