19
Iteration:  3683
 C         3.193940         1.540555         0.212768
 C         2.329239         0.758637         1.153082
 C         1.816977         0.755069         2.493617
 O         0.439206         0.399562         2.233988
 C         0.998418        -0.127782         0.877877
 C        -0.004188        -0.043511        -0.216759
 C         1.876157        -1.465757         1.325277
 C         2.749883        -0.367325         2.066015
 O         4.071661        -0.314589         2.541172
 H         3.431981         2.481461         0.597101
 H         4.102527         0.952786         0.200807
 H         2.773570         1.779370        -0.803233
 H         2.215880         1.447528         3.287096
 H        -1.121948        -0.371972         0.036179
 H         0.070578         1.018238        -0.650957
 H         0.403950        -0.586777        -1.089981
 H         1.383938        -2.187148         1.970779
 H         2.244812        -1.793753         0.406686
 H         4.159570        -0.761696         3.412547
