19
Iteration:  4807
 C         2.960658         1.812398         0.159871
 C         2.347436         0.798843         1.018219
 C         1.875734         0.848399         2.455615
 O         0.538396         0.503517         2.166545
 C         1.046057        -0.040260         0.875413
 C         0.130028        -0.346478        -0.220202
 C         1.837449        -1.337287         1.387032
 C         2.790468        -0.333658         2.138969
 O         4.014218        -0.702649         2.641583
 H         3.899445         1.917080         0.623762
 H         3.017870         1.641073        -0.875945
 H         2.501451         2.831349         0.319240
 H         2.041331         1.535776         3.289100
 H        -0.545799        -1.039080         0.100186
 H        -0.483392         0.550030        -0.484039
 H         0.585178        -0.662510        -1.078813
 H         1.271499        -2.111498         1.992501
 H         2.410159        -1.759175         0.503980
 H         3.977906        -0.610625         3.609117
