19
Iteration:  1602
 C         3.063256         1.835852         0.246414
 C         2.365468         0.812595         1.107051
 C         1.765833         0.685393         2.550824
 O         0.431351         0.368197         2.178050
 C         1.081097        -0.166823         0.908144
 C         0.055985        -0.146313        -0.253186
 C         1.932252        -1.354447         1.314075
 C         2.795639        -0.312836         1.985877
 O         4.026780        -0.601678         2.645474
 H         4.015893         2.079351         0.728432
 H         3.291869         1.262934        -0.708864
 H         2.485596         2.680795        -0.065665
 H         2.084482         1.449929         3.387737
 H        -0.803603        -0.777640        -0.028215
 H        -0.353564         0.894972        -0.356416
 H         0.373273        -0.534568        -1.267562
 H         1.394122        -2.026651         1.984729
 H         2.440515        -1.728719         0.356556
 H         4.392454         0.115612         3.196297
