19
Iteration:  4288
 C         3.251470         1.724743         0.354578
 C         2.388087         0.733239         1.041810
 C         1.966740         0.788839         2.467100
 O         0.527035         0.486448         2.259611
 C         1.013485        -0.056479         0.852753
 C        -0.078665        -0.124905        -0.115799
 C         1.648524        -1.410562         1.423549
 C         2.740600        -0.410528         2.014043
 O         4.074510        -0.544287         2.408643
 H         4.296317         1.892318         0.731665
 H         3.275335         1.342327        -0.745341
 H         2.766172         2.662742         0.266148
 H         2.188275         1.618815         3.155711
 H        -0.781899        -1.034952        -0.051417
 H        -0.733227         0.793505        -0.150830
 H         0.354971        -0.219877        -1.133011
 H         0.877653        -1.947580         1.896479
 H         2.081797        -1.910080         0.561932
 H         4.259802        -1.269499         3.029341
