19
Iteration:   829
 C         2.943054         2.082046         0.624581
 C         2.395506         0.851952         1.172622
 C         1.852484         0.648631         2.554971
 O         0.428279         0.250054         2.116330
 C         1.094689        -0.109744         0.769437
 C         0.027917        -0.171581        -0.313750
 C         2.026049        -1.298390         1.159500
 C         2.817803        -0.418089         2.002497
 O         3.985438        -0.643612         2.637975
 H         3.828228         2.402814         1.191356
 H         3.269676         2.060311        -0.388558
 H         2.030671         2.853658         0.666635
 H         1.948575         1.243212         3.400427
 H        -0.865118        -0.751936         0.138646
 H        -0.414732         0.840892        -0.396405
 H         0.113669        -0.625396        -1.290250
 H         1.628212        -2.273833         1.449064
 H         2.680617        -1.576831         0.293532
 H         4.638782        -0.973342         1.942699
