19
Iteration:  4354charge 0 multiplicity 1
 C         3.226468         1.533175         0.190982
 C         2.305620         0.827103         1.124713
 C         1.811955         0.802832         2.553432
 O         0.512469         0.360891         2.253960
 C         1.026795        -0.028237         0.897067
 C        -0.068791        -0.031160        -0.158141
 C         1.801150        -1.300291         1.305265
 C         2.767306        -0.315502         2.118575
 O         4.113236        -0.632187         2.440097
 H         4.253919         1.073034        -0.002219
 H         2.651262         1.634876        -0.825378
 H         3.290478         2.567667         0.398038
 H         2.149672         1.447335         3.366878
 H        -1.054664        -0.600458         0.145188
 H        -0.438852         0.988702        -0.378783
 H         0.396907        -0.513614        -1.114539
 H         1.148322        -1.993102         1.715484
 H         2.431821        -1.645035         0.506911
 H         4.084660        -0.545849         3.412678
