19
Iteration:   954charge 0 multiplicity 1
 C         2.942378         2.023091         0.466824
 C         2.242307         0.898359         1.173547
 C         1.726471         0.614446         2.551266
 O         0.491264         0.144764         2.303114
 C         1.108253        -0.145951         0.826356
 C         0.192546        -0.044960        -0.329536
 C         1.942619        -1.332296         1.104976
 C         2.818698        -0.377760         1.915980
 O         4.080621        -0.617265         2.576266
 H         3.619087         2.581289         1.137551
 H         3.483293         1.661337        -0.494306
 H         2.208667         2.793990         0.348662
 H         1.729859         1.220725         3.602662
 H        -0.462631        -0.798576        -0.567475
 H        -0.461242         0.814804        -0.220153
 H         0.826132         0.046413        -1.247096
 H         1.252576        -1.988233         1.649894
 H         2.400040        -1.866149         0.325737
 H         3.947447        -0.610019         3.589794
