19
Iteration:  2346charge 0 multiplicity 1
 C         2.845372         1.874529         0.215137
 C         2.333683         0.772165         1.121032
 C         1.860067         0.783608         2.519782
 O         0.480193         0.492109         2.088875
 C         1.079275        -0.103353         0.883020
 C         0.227192        -0.144721        -0.251799
 C         1.860292        -1.396760         1.413222
 C         2.833956        -0.380884         2.104300
 O         4.051183        -0.744351         2.604914
 H         3.748839         2.381798         0.424289
 H         2.977566         1.576226        -0.822621
 H         1.947214         2.687347         0.308174
 H         1.961658         1.614757         3.240287
 H        -0.349439        -1.050180        -0.123105
 H        -0.384906         0.680016        -0.425982
 H         0.854398        -0.300295        -1.100693
 H         1.275920        -2.192080         1.939062
 H         2.302875        -1.700358         0.535558
 H         4.058910        -0.593085         3.577671
