19
Iteration:  4108
 C         3.320049         1.613537         0.344328
 C         2.304365         0.789831         1.094048
 C         1.952990         0.857000         2.560013
 O         0.482924         0.516735         2.304416
 C         1.009068        -0.064407         0.966851
 C        -0.037885        -0.201832        -0.179903
 C         1.722409        -1.303470         1.318342
 C         2.682677        -0.370768         2.060339
 O         4.028253        -0.604290         2.257726
 H         4.316130         1.336850         0.633713
 H         3.263855         1.333816        -0.697988
 H         3.095738         2.762783         0.424279
 H         2.050311         1.666680         3.268254
 H        -0.646511        -1.182421         0.036957
 H        -0.713983         0.699991        -0.341339
 H         0.672779        -0.407578        -1.099863
 H         1.185203        -1.995762         1.899302
 H         2.133642        -1.826580         0.505280
 H         4.383249        -0.888554         3.115177
