19
Iteration:  2343
 C         2.851702         1.879353         0.216513
 C         2.338404         0.769202         1.141842
 C         1.858865         0.787994         2.476616
 O         0.482637         0.487569         2.097389
 C         1.093599        -0.076867         0.891467
 C         0.212787        -0.156787        -0.231069
 C         1.858154        -1.384319         1.412841
 C         2.801276        -0.389420         2.080838
 O         4.062088        -0.746979         2.610474
 H         3.759300         2.354127         0.564275
 H         2.901409         1.612369        -0.824176
 H         2.019855         2.632218         0.291409
 H         1.921166         1.569025         3.255530
 H        -0.302458        -1.140305        -0.188814
 H        -0.393433         0.742033        -0.502740
 H         0.890369        -0.357576        -1.129520
 H         1.271841        -2.205411         2.012580
 H         2.332906        -1.757191         0.462524
 H         4.078688        -0.524153         3.574612
