19
Iteration:  2222
 C         3.214267         1.666525         0.245890
 C         2.305844         0.791198         1.146470
 C         1.791307         0.791143         2.487060
 O         0.466548         0.219871         2.223931
 C         0.977489        -0.087189         0.978450
 C         0.067829        -0.049557        -0.272692
 C         1.931928        -1.404639         1.314423
 C         2.756228        -0.304650         2.023599
 O         3.977012        -0.372310         2.589934
 H         3.952352         2.318496         0.809703
 H         3.576468         1.230195        -0.664856
 H         2.547447         2.503719        -0.262027
 H         2.067987         1.389578         3.331750
 H        -0.752250        -0.798085        -0.207595
 H        -0.250697         0.945540        -0.720847
 H         0.678232        -0.618857        -1.029137
 H         1.514543        -2.315421         1.877210
 H         2.294153        -1.928307         0.344688
 H         4.098483        -1.186020         3.138824
