19
Iteration:  2534
 C         2.924632         1.857677         0.205622
 C         2.331818         0.762583         1.101542
 C         1.860624         0.802530         2.514253
 O         0.500331         0.436211         2.128032
 C         1.113775        -0.107137         0.868424
 C         0.141234        -0.077968        -0.280222
 C         1.873166        -1.443612         1.393544
 C         2.801141        -0.341087         2.094321
 O         4.067480        -0.668803         2.627559
 H         3.855084         2.166601         0.574577
 H         2.919102         1.501180        -0.771251
 H         2.124460         2.625648         0.280546
 H         1.909369         1.466451         3.401463
 H        -0.573840        -0.854798         0.076153
 H        -0.469336         0.849452        -0.368260
 H         0.556394        -0.375152        -1.217313
 H         1.200312        -1.936773         2.200298
 H         2.357403        -1.841161         0.435744
 H         3.857647        -1.385967         3.237191
