19
Iteration:  1265charge 0 multiplicity 1
 C         3.039042         1.935286         0.393919
 C         2.286557         0.826352         1.083321
 C         1.737307         0.755567         2.518906
 O         0.458912         0.154765         2.188058
 C         1.076754        -0.136812         0.873546
 C         0.096806        -0.030463        -0.280697
 C         1.959695        -1.402480         1.245650
 C         2.727716        -0.333333         2.068671
 O         4.077542        -0.527120         2.636966
 H         3.874504         2.231826         0.987093
 H         3.501599         1.489118        -0.507245
 H         2.364212         2.729992         0.099502
 H         1.721847         1.238398         3.488266
 H        -0.751661        -0.607775         0.022606
 H        -0.146472         0.985046        -0.497941
 H         0.390027        -0.497524        -1.225058
 H         1.548284        -2.226313         1.795223
 H         2.674091        -1.621568         0.436138
 H         4.517774        -1.207263         2.078935
