19
Iteration:   952charge 0 multiplicity 1
 C         2.938400         2.007167         0.466097
 C         2.234216         0.910190         1.176921
 C         1.748903         0.597896         2.539751
 O         0.486183         0.125234         2.299435
 C         1.107630        -0.143296         0.831942
 C         0.210833        -0.016688        -0.324039
 C         1.933194        -1.322535         1.107574
 C         2.818317        -0.366081         1.924702
 O         4.073655        -0.621450         2.571997
 H         3.622155         2.538002         1.134074
 H         3.477043         1.637261        -0.445363
 H         2.176903         2.861225         0.302121
 H         1.740811         1.248775         3.540684
 H        -0.447627        -0.827669        -0.587710
 H        -0.521712         0.797756        -0.233107
 H         0.840821         0.032219        -1.277488
 H         1.284276        -2.027407         1.715419
 H         2.375653        -1.934927         0.375087
 H         3.969020        -0.471247         3.566421
