19
Iteration:  1677
 C         3.000997         1.775880         0.324444
 C         2.336220         0.780683         1.172156
 C         1.835821         0.627776         2.604752
 O         0.439121         0.516213         2.136984
 C         1.118332        -0.074657         0.857693
 C         0.130016        -0.217561        -0.280052
 C         1.804259        -1.456704         1.335368
 C         2.775267        -0.422165         2.067200
 O         4.075228        -0.406612         2.521307
 H         3.775117         2.437049         0.830222
 H         3.447451         1.266404        -0.549263
 H         2.172341         2.490895        -0.046029
 H         1.963452         1.538487         3.324655
 H        -0.822383        -0.515268         0.111098
 H        -0.139003         0.802579        -0.625943
 H         0.447431        -0.717027        -1.216205
 H         1.393448        -2.219619         1.987678
 H         2.489865        -1.823934         0.501935
 H         4.399439        -1.235926         2.881988
