19
Iteration:   670
 C         3.078523         1.990431         0.450368
 C         2.221254         0.912360         1.114387
 C         1.781927         0.705624         2.513577
 O         0.546043         0.092977         2.200415
 C         1.037683        -0.160254         0.870770
 C         0.022506        -0.048190        -0.236506
 C         2.021510        -1.300555         1.171281
 C         2.743834        -0.326709         1.926766
 O         3.916398        -0.636171         2.685737
 H         3.892849         2.026684         1.206918
 H         3.660810         1.580397        -0.537689
 H         2.708677         2.948015         0.302567
 H         2.278758         1.082823         3.348091
 H        -0.827052        -0.656912        -0.265818
 H        -0.308758         0.980079        -0.474458
 H         0.763736        -0.462550        -1.025596
 H         1.624597        -2.172540         1.775921
 H         2.481874        -1.577074         0.254050
 H         4.791853        -0.412971         2.227506
