19
Iteration:   866charge 0 multiplicity 1
 C         3.029442         2.091733         0.493043
 C         2.224780         0.985647         1.173790
 C         1.836473         0.533920         2.561544
 O         0.404708         0.064679         2.296479
 C         1.091631        -0.096626         0.852033
 C         0.124646        -0.079123        -0.376615
 C         1.989506        -1.399069         1.124988
 C         2.813609        -0.347856         1.955880
 O         3.974120        -0.534067         2.609588
 H         3.859784         2.450352         1.111296
 H         3.377528         1.627101        -0.515374
 H         2.487929         2.978395         0.253649
 H         1.989544         1.122300         3.603093
 H        -0.758923        -0.550130        -0.180139
 H        -0.000575         0.996507        -0.420066
 H         0.621004        -0.254926        -1.355926
 H         1.435732        -2.201329         1.616587
 H         2.506331        -1.617203         0.246605
 H         4.459049        -1.384751         2.445248
