19
Iteration:  3801
 C         2.958342         1.806616         0.171910
 C         2.387936         0.740831         1.068202
 C         1.857695         0.813651         2.428530
 O         0.500298         0.491058         2.153303
 C         1.058764        -0.155903         0.949264
 C         0.151638        -0.058529        -0.220154
 C         1.779878        -1.397549         1.495534
 C         2.767698        -0.303198         2.079213
 O         4.075707        -0.729229         2.562172
 H         2.037643         2.251571        -0.213769
 H         3.654278         2.507174         0.682840
 H         3.375030         1.338463        -0.772818
 H         2.247779         1.618904         3.078246
 H        -0.648824        -0.733179        -0.119448
 H        -0.239728         0.860020        -0.389422
 H         0.546316        -0.304360        -1.172158
 H         1.331475        -1.988024         2.376778
 H         2.310044        -1.927428         0.743056
 H         3.998711        -1.234915         3.378734
