19
Iteration:  1250charge 0 multiplicity 1
 C         2.985817         1.840650         0.438726
 C         2.341850         0.778511         1.224214
 C         1.721140         0.618154         2.614181
 O         0.414046         0.283288         2.095706
 C         1.099053        -0.130081         0.795327
 C         0.079572        -0.079632        -0.294050
 C         2.008557        -1.329877         1.268410
 C         2.802494        -0.326266         2.085027
 O         4.093087        -0.470831         2.498378
 H         3.742669         2.237109         1.164156
 H         3.369176         1.595416        -0.579045
 H         2.332140         2.674423         0.334872
 H         1.878234         1.435498         3.410730
 H        -0.901319        -0.460690         0.124779
 H        -0.166452         0.965738        -0.591647
 H         0.411208        -0.656543        -1.146696
 H         1.422828        -2.131379         1.701342
 H         2.531977        -1.744380         0.384033
 H         4.173540        -1.443300         2.817744
