19
Iteration:  3224charge 0 multiplicity 1
 C         3.117281         1.824834         0.272268
 C         2.335363         0.748430         1.021453
 C         1.887170         0.746195         2.428833
 O         0.508255         0.468686         2.176591
 C         1.003614        -0.149496         0.904801
 C         0.032874        -0.183295        -0.206317
 C         1.841186        -1.421419         1.375188
 C         2.802447        -0.345627         1.976730
 O         4.013131        -0.553245         2.659176
 H         3.460591         2.494802         1.035191
 H         3.899243         1.576556        -0.517380
 H         2.250494         2.452226        -0.232911
 H         2.111459         1.481187         3.205557
 H        -0.673445        -1.090164        -0.329911
 H        -0.498114         0.826610        -0.234240
 H         0.781807        -0.290565        -1.074052
 H         1.339894        -2.085762         2.089865
 H         2.112722        -1.980396         0.506265
 H         4.004113        -0.738024         3.611992
