19
Iteration:  2242charge 0 multiplicity 1
 C         3.209359         1.648859         0.279552
 C         2.272458         0.810629         1.155633
 C         1.746967         0.728690         2.550735
 O         0.467663         0.290193         2.218625
 C         1.052189        -0.137857         0.799523
 C         0.057476        -0.168688        -0.217744
 C         1.860570        -1.296501         1.238005
 C         2.747285        -0.273012         2.029837
 O         4.076804        -0.400608         2.580937
 H         3.917877         2.153344         1.033790
 H         3.736280         1.021426        -0.490334
 H         2.766658         2.489533        -0.244623
 H         1.943523         1.327745         3.401668
 H        -0.890881        -0.599267         0.278135
 H        -0.170336         0.952466        -0.395952
 H         0.276209        -0.721767        -1.177540
 H         1.318166        -2.220987         1.640887
 H         2.527265        -1.756219         0.373277
 H         3.875025        -0.691584         3.469994
