19
Iteration:  1722charge 0 multiplicity 1
 C         3.050108         1.833906         0.225106
 C         2.219916         0.822230         1.099162
 C         1.791675         0.758761         2.537199
 O         0.415627         0.339695         2.265678
 C         1.075954        -0.256765         0.839976
 C         0.152935        -0.091637        -0.303431
 C         1.961089        -1.360400         1.431006
 C         2.819286        -0.267488         2.039282
 O         4.033383        -0.647524         2.519861
 H         3.945823         2.144467         0.779539
 H         3.449273         1.255253        -0.708953
 H         2.518117         2.748410        -0.123134
 H         2.052317         1.533118         3.349161
 H        -0.571960        -0.863840        -0.261079
 H        -0.487693         0.822928        -0.210390
 H         0.693246        -0.091228        -1.264965
 H         1.306192        -1.860300         2.139939
 H         2.517784        -1.885395         0.622856
 H         3.906481        -0.222341         3.398547
