19
Iteration:  4361
 C         3.156948         1.572591         0.163883
 C         2.308721         0.819433         1.149000
 C         1.863829         0.747699         2.551429
 O         0.513831         0.390237         2.290422
 C         0.924139        -0.078046         0.839469
 C        -0.047422         0.006536        -0.209755
 C         1.798368        -1.265398         1.307577
 C         2.769698        -0.322686         2.100989
 O         4.161358        -0.639593         2.495779
 H         4.112823         1.066320         0.020411
 H         2.666055         1.493772        -0.779845
 H         3.550601         2.656819         0.353846
 H         2.074279         1.525503         3.284643
 H        -0.904671        -0.592988         0.159428
 H        -0.329239         1.044749        -0.545634
 H         0.235506        -0.524830        -1.079388
 H         1.297038        -2.127714         1.911292
 H         2.410453        -1.768850         0.501074
 H         4.161799        -0.614640         3.476552
