19
Iteration:  2192
 C         2.947940         1.715432         0.237249
 C         2.316572         0.748577         1.190078
 C         1.762851         0.717219         2.548002
 O         0.410452         0.400880         2.100373
 C         1.083831        -0.134406         0.861027
 C         0.182111        -0.056832        -0.283205
 C         1.918781        -1.392193         1.418050
 C         2.834515        -0.357326         2.121871
 O         4.085755        -0.486844         2.547488
 H         3.819935         2.175411         0.632215
 H         3.235592         1.173843        -0.660315
 H         2.219325         2.617365         0.013670
 H         2.034527         1.639921         3.164121
 H        -0.555252        -0.814410        -0.203443
 H        -0.381484         0.845796        -0.283010
 H         0.771390        -0.061489        -1.189578
 H         1.279255        -1.965001         2.061647
 H         2.246937        -1.915270         0.579116
 H         4.200458        -1.275821         3.114137
