19
Iteration:   486charge 0 multiplicity 1
 C         3.105953         1.931611         0.412583
 C         2.337342         0.902579         1.155550
 C         1.841601         0.599084         2.517213
 O         0.469877         0.130858         2.262773
 C         0.939586        -0.177490         0.902071
 C         0.116679         0.012897        -0.267890
 C         1.886834        -1.343113         1.159899
 C         2.828431        -0.311941         1.884866
 O         3.955889        -0.573519         2.687991
 H         3.882754         2.550467         0.903631
 H         3.340728         1.678662        -0.561941
 H         2.315140         2.745542         0.189374
 H         2.000931         0.990069         3.577520
 H        -0.728061        -0.623991        -0.264440
 H        -0.258460         1.037470        -0.520985
 H         0.873509        -0.292883        -1.065342
 H         1.516709        -2.201075         1.780802
 H         2.264302        -1.801352         0.261386
 H         4.664192        -0.447133         2.038224
