19
Iteration:  2521charge 0 multiplicity 1
 C         2.970930         1.805373         0.312111
 C         2.455982         0.773741         1.167304
 C         1.838870         0.811082         2.504552
 O         0.515048         0.459392         2.084274
 C         1.092885        -0.143462         0.889422
 C         0.043617        -0.187038        -0.262660
 C         1.865347        -1.346384         1.412085
 C         2.772975        -0.384970         2.024145
 O         4.000192        -0.578602         2.566516
 H         3.868256         2.142230         0.625425
 H         3.152115         1.514715        -0.681963
 H         2.384622         2.758715         0.355539
 H         2.225870         1.332367         3.417857
 H        -0.809363        -0.951682        -0.181676
 H        -0.377782         0.845247        -0.222996
 H         0.493785        -0.281709        -1.275058
 H         1.335714        -2.181433         1.898279
 H         2.362097        -1.890504         0.647330
 H         4.004686        -1.386948         3.148802
