19
Iteration:  1707
 C         3.045597         1.809645         0.274412
 C         2.287574         0.822775         1.072627
 C         1.768907         0.835273         2.493314
 O         0.478110         0.267736         2.211410
 C         1.005507        -0.119272         0.984683
 C         0.162311        -0.124699        -0.294515
 C         1.851106        -1.392896         1.429086
 C         2.768860        -0.301091         2.000336
 O         4.089606        -0.589081         2.516132
 H         3.904259         2.248070         0.882664
 H         3.464379         1.352226        -0.557869
 H         2.384164         2.690530        -0.062765
 H         1.806825         1.789812         3.103532
 H        -0.715238        -0.844552        -0.359126
 H        -0.168238         0.894668        -0.475171
 H         0.868793        -0.320970        -1.135856
 H         1.564574        -2.238947         2.070516
 H         2.401636        -1.932180         0.618511
 H         4.092160        -0.928928         3.465682
