19
Iteration:   560charge 0 multiplicity 1
 C         2.909861         1.926531         0.365922
 C         2.313108         0.803577         1.187987
 C         1.797157         0.632933         2.586067
 O         0.450898         0.210464         2.235591
 C         1.068840        -0.093364         0.866695
 C         0.196311         0.040792        -0.292767
 C         1.999549        -1.358442         1.136424
 C         2.805816        -0.410032         1.954494
 O         3.971536        -0.553601         2.656385
 H         3.691006         2.496569         0.867381
 H         3.186520         1.616339        -0.732067
 H         2.202190         2.671553         0.195548
 H         2.187540         1.009874         3.617078
 H        -0.663409        -0.603133        -0.187299
 H        -0.147968         1.113228        -0.297454
 H         0.733171        -0.045173        -1.266482
 H         1.293404        -2.017045         1.720004
 H         2.615429        -1.991694         0.512690
 H         4.419029        -1.340945         2.359041
