19
Iteration:   622charge 0 multiplicity 1
 C         2.952565         1.958447         0.596956
 C         2.354386         0.774965         1.233761
 C         1.792490         0.674123         2.671147
 O         0.452416         0.449515         2.004010
 C         1.062768        -0.036664         0.876677
 C         0.150330        -0.184583        -0.283643
 C         1.929726        -1.408468         1.198560
 C         2.753610        -0.414510         2.025313
 O         4.082963        -0.668523         2.445648
 H         3.716187         2.391542         1.232356
 H         3.376677         1.796727        -0.388709
 H         2.026969         2.618560         0.514654
 H         1.493996         1.312799         3.621221
 H        -0.571771        -1.051750        -0.005069
 H        -0.581590         0.625726        -0.324127
 H         0.644597        -0.512656        -1.140503
 H         1.302511        -2.115036         1.670287
 H         2.620859        -1.811674         0.408139
 H         4.824895        -0.185786         2.096969
