19
Iteration:  4192
 C         2.955374         1.700628         0.084781
 C         2.334034         0.745315         1.067734
 C         1.891242         0.779018         2.486346
 O         0.524146         0.470032         2.295697
 C         1.053519        -0.117290         0.936213
 C         0.011946         0.165883        -0.110414
 C         1.759726        -1.376451         1.332102
 C         2.883436        -0.488323         1.912749
 O         4.116605        -0.734869         2.615351
 H         3.286231         2.621971         0.565883
 H         3.784865         1.269997        -0.497340
 H         2.272898         1.999451        -0.659493
 H         2.109167         1.375998         3.411839
 H        -0.929314        -0.093193         0.069736
 H         0.013057         1.133202        -0.371425
 H         0.219376        -0.362726        -1.010570
 H         1.441680        -2.210312         2.044504
 H         2.402013        -1.763037         0.512780
 H         3.851005        -0.717250         3.555508
