19
Iteration:  1030charge 0 multiplicity 1
 C         2.990486         2.087105         0.552421
 C         2.337889         0.840118         1.063218
 C         1.783127         0.538537         2.582804
 O         0.492070         0.149075         2.211316
 C         1.070283        -0.107601         0.853910
 C         0.065013        -0.133763        -0.304426
 C         1.969126        -1.332848         1.202540
 C         2.772477        -0.276301         1.930172
 O         3.955250        -0.631415         2.577752
 H         3.807464         2.165338         1.331240
 H         3.577218         1.885757        -0.438726
 H         2.487925         3.056463         0.541875
 H         2.073660         1.128477         3.530304
 H        -0.894914        -0.555907        -0.348120
 H         0.054902         0.865243        -0.753543
 H         0.678822        -0.648599        -1.117557
 H         1.539896        -2.028199         1.972761
 H         2.441121        -1.692478         0.338102
 H         4.574113         0.070207         2.462138
