19
Iteration:  2278charge 0 multiplicity 1
 C         3.199691         1.739110         0.379787
 C         2.381258         0.803229         1.102571
 C         1.690787         0.780382         2.514165
 O         0.435073         0.360912         2.141940
 C         1.058754        -0.172306         0.859691
 C        -0.017657        -0.212638        -0.202817
 C         1.922015        -1.345213         1.295714
 C         2.787593        -0.262717         2.030379
 O         4.037283        -0.579209         2.545461
 H         4.056460         2.149662         0.890830
 H         3.698845         1.396221        -0.505158
 H         2.406122         2.617510         0.112846
 H         2.003473         1.576554         3.225327
 H        -0.881178        -0.740360         0.215960
 H        -0.315102         0.840344        -0.418016
 H         0.248413        -0.674852        -1.181461
 H         1.535739        -2.235491         1.913868
 H         2.629360        -1.530042         0.453833
 H         4.155052         0.056367         3.246351
