19
Iteration:  2114
 C         3.011093         2.015698         0.262256
 C         2.393533         0.827912         1.105060
 C         1.891191         0.747987         2.481397
 O         0.470187         0.390727         2.189174
 C         1.044171        -0.150382         0.833840
 C         0.088197        -0.255023        -0.258966
 C         1.868149        -1.404447         1.322981
 C         2.808601        -0.353668         2.067523
 O         3.979002        -0.680734         2.664113
 H         3.967860         2.453140         0.644452
 H         3.306442         1.540874        -0.644277
 H         2.159556         2.704512        -0.143048
 H         1.968025         1.585529         3.183495
 H        -0.759149        -0.884160        -0.006924
 H        -0.213853         0.797433        -0.337147
 H         0.510286        -0.652914        -1.193348
 H         1.273912        -2.200688         1.802269
 H         2.562594        -1.935634         0.633336
 H         4.146259         0.015588         3.353291
