19
Iteration:  1144
 C         2.894187         1.901599         0.404542
 C         2.330943         0.829751         1.220033
 C         1.789051         0.659434         2.642535
 O         0.531100         0.279630         2.139329
 C         1.076731        -0.086589         0.806928
 C         0.083868        -0.035228        -0.291880
 C         1.998132        -1.418692         1.101511
 C         2.785376        -0.340227         1.981375
 O         4.049552        -0.645063         2.644893
 H         3.716191         2.456337         0.912979
 H         3.290833         1.547968        -0.612667
 H         1.961751         2.557773         0.311265
 H         1.871936         1.203300         3.678083
 H        -0.432616        -1.004795        -0.382447
 H        -0.605623         0.773012        -0.147602
 H         0.609680         0.145215        -1.189757
 H         1.458364        -2.180843         1.628436
 H         2.596435        -1.830615         0.197891
 H         4.115662        -0.023193         3.385044
