19
Iteration:    11charge 0 multiplicity 1
 C         2.961130         2.045603         0.604457
 C         2.291774         0.882826         1.245567
 C         1.770853         0.589218         2.620086
 O         0.464023         0.190576         2.122477
 C         1.123419        -0.060754         0.828498
 C         0.077423        -0.030934        -0.212998
 C         1.990490        -1.400248         0.969624
 C         2.752207        -0.438163         2.011077
 O         4.056941        -0.583974         2.452341
 H         3.714048         2.480203         1.289740
 H         3.368291         1.846966        -0.448092
 H         2.176722         2.739246         0.522373
 H         1.956302         0.945490         3.655891
 H        -0.277926        -1.003005        -0.023685
 H        -0.670255         0.804839        -0.212640
 H         0.562122        -0.133858        -1.213713
 H         1.729965        -2.274265         1.470470
 H         2.765166        -1.549502         0.235071
 H         4.098301        -0.691558         3.431434
