19
Iteration:  3364charge 0 multiplicity 1
 C         2.928820         1.824671         0.209503
 C         2.347944         0.757857         1.044801
 C         1.857059         0.808438         2.419630
 O         0.536932         0.447785         2.108484
 C         1.112674        -0.161303         0.931413
 C         0.135032        -0.113067        -0.236198
 C         1.873920        -1.429687         1.438772
 C         2.757174        -0.319343         2.092825
 O         3.983978        -0.646579         2.636011
 H         3.877886         2.150565         0.494892
 H         3.091259         1.397597        -0.808754
 H         2.323092         2.790423        -0.012073
 H         1.874441         1.460413         3.340700
 H        -0.675865        -0.869322        -0.245402
 H        -0.267708         0.811529        -0.203580
 H         0.712158        -0.336932        -1.157339
 H         1.268740        -2.177145         2.103094
 H         2.529809        -2.119276         0.893471
 H         4.149648        -0.410989         3.581388
