19
Iteration:  3891charge 0 multiplicity 1
 C         3.260245         1.569446         0.240101
 C         2.310763         0.787294         1.071498
 C         1.771317         0.838925         2.539239
 O         0.469490         0.417641         2.229199
 C         0.943064        -0.109238         0.909542
 C        -0.082624        -0.086078        -0.182513
 C         1.912781        -1.319967         1.316771
 C         2.756194        -0.272541         2.091665
 O         4.087646        -0.591105         2.443328
 H         3.100013         1.669333        -0.826826
 H         3.500180         2.522963         0.740615
 H         4.288847         0.940858         0.215039
 H         2.124565         1.542988         3.270094
 H        -0.763261        -0.799931         0.297394
 H        -0.506223         0.869035        -0.370775
 H         0.297876        -0.416298        -1.079530
 H         1.431369        -2.108980         2.043141
 H         2.530519        -1.613895         0.432364
 H         3.983306        -0.791202         3.387742
