19
Iteration:   137
 C         2.788840         1.919339         0.458983
 C         2.253082         0.804270         1.325531
 C         1.717098         0.543306         2.659157
 O         0.478916         0.060094         2.224404
 C         1.084411        -0.039113         0.932959
 C         0.364598         0.198853        -0.337873
 C         1.989730        -1.350235         1.178287
 C         2.734223        -0.410785         1.936126
 O         4.053221        -0.619259         2.436896
 H         3.675184         2.465637         0.805223
 H         3.029166         1.513703        -0.507849
 H         2.024590         2.749837         0.268554
 H         2.002356         1.164699         3.581111
 H        -0.603845        -0.378196        -0.309157
 H         0.114018         1.296404        -0.490324
 H         1.079447        -0.228376        -1.107924
 H         1.548353        -2.362578         1.551592
 H         2.395562        -1.679652         0.151938
 H         4.401361         0.323851         2.355931
