19
Iteration:  3785
 C         2.971653         1.805378         0.140333
 C         2.434788         0.720847         1.134261
 C         1.894212         0.881804         2.520319
 O         0.538992         0.510339         2.161363
 C         1.069323        -0.075012         0.940446
 C         0.140403        -0.208091        -0.206822
 C         1.796148        -1.351975         1.478008
 C         2.767830        -0.427191         2.014669
 O         3.977529        -0.663532         2.507253
 H         2.274618         2.665921         0.021502
 H         3.877883         2.210449         0.608210
 H         3.260530         1.445027        -0.821715
 H         1.940373         1.381441         3.481060
 H        -0.643476        -1.052708        -0.139937
 H        -0.387703         0.867599        -0.302755
 H         0.822929        -0.415057        -1.091847
 H         1.071247        -1.909990         1.967908
 H         2.164748        -1.996910         0.615413
 H         3.836359        -0.962905         3.417513
