19
Iteration:  4130charge 0 multiplicity 1
 C         3.307517         1.628167         0.327719
 C         2.340407         0.785825         1.110105
 C         1.849205         0.822604         2.536455
 O         0.487236         0.527529         2.273966
 C         0.899964        -0.051389         0.961464
 C        -0.075371        -0.147508        -0.182349
 C         1.707425        -1.282583         1.399587
 C         2.730116        -0.401402         1.893862
 O         4.180297        -0.616747         2.341614
 H         4.215045         1.696814         0.912536
 H         3.552359         1.032947        -0.537587
 H         2.914543         2.681617        -0.011936
 H         2.051118         1.287489         3.494225
 H        -0.646850        -1.106924         0.133360
 H        -0.751885         0.752254        -0.330448
 H         0.602902        -0.396570        -1.101571
 H         1.411877        -2.074197         2.002961
 H         2.104061        -1.705942         0.514046
 H         4.121946        -1.044896         3.216225
