19
Iteration:  2210
 C         3.109371         1.720443         0.191398
 C         2.299754         0.802158         1.064509
 C         1.762908         0.751039         2.562769
 O         0.436143         0.349435         2.244971
 C         0.995504        -0.194165         0.889754
 C         0.153148        -0.078332        -0.295523
 C         1.902633        -1.424074         1.367867
 C         2.716466        -0.331288         2.018844
 O         4.075925        -0.400048         2.611293
 H         3.975438         2.089040         0.859922
 H         3.650765         1.182342        -0.593201
 H         2.438311         2.562978        -0.118925
 H         1.987758         1.119517         3.517924
 H        -0.809521        -0.658310        -0.175375
 H        -0.192620         1.025231        -0.325868
 H         0.760163        -0.269268        -1.218767
 H         1.447209        -2.238514         2.026302
 H         2.592588        -1.706019         0.469030
 H         4.041671        -1.311063         2.976239
