19
Iteration:  4971
 C         3.120342         1.718209         0.289758
 C         2.334057         0.736209         1.066838
 C         1.724727         0.835572         2.442953
 O         0.404535         0.431957         2.060636
 C         0.976183        -0.174754         0.923198
 C         0.042713        -0.219672        -0.222045
 C         2.015459        -1.410487         1.515005
 C         2.852465        -0.318737         1.947837
 O         4.031277        -0.460705         2.615968
 H         2.765685         1.707643        -0.717335
 H         3.267856         2.717175         0.682305
 H         4.179037         1.270147         0.130723
 H         1.930861         1.634451         3.170742
 H        -0.755946        -0.843909         0.004355
 H        -0.274508         0.862802        -0.418894
 H         0.605825        -0.600860        -1.048897
 H         1.521010        -1.996867         2.291664
 H         2.439427        -1.906426         0.639367
 H         3.919606        -0.448647         3.581717
