19
Iteration:  4216charge 0 multiplicity 1
 C         2.901932         1.725515         0.026064
 C         2.407478         0.802331         1.125967
 C         2.006814         0.716610         2.574597
 O         0.580227         0.424876         2.285212
 C         1.066314        -0.013216         0.997050
 C         0.123471         0.103955        -0.135524
 C         1.811403        -1.364831         1.328710
 C         2.725622        -0.478359         1.984900
 O         3.940597        -0.760069         2.524714
 H         3.184555         2.706368         0.373893
 H         3.629778         1.330119        -0.636573
 H         1.998255         1.935668        -0.650897
 H         2.370975         1.419836         3.336539
 H        -0.873226        -0.161884        -0.018074
 H         0.103332         1.061616        -0.565098
 H         0.456950        -0.566917        -0.965916
 H         1.302855        -2.050695         2.078313
 H         2.386582        -1.832823         0.534525
 H         3.962393        -0.462126         3.448958
