19
Iteration:   956
 C         2.947144         2.035092         0.466687
 C         2.253724         0.885730         1.172844
 C         1.712783         0.634368         2.569600
 O         0.491241         0.159292         2.300276
 C         1.104797        -0.144532         0.821150
 C         0.179759        -0.063934        -0.335945
 C         1.949819        -1.341739         1.109805
 C         2.820280        -0.386143         1.913938
 O         4.084457        -0.612897         2.581337
 H         3.632608         2.593874         1.140103
 H         3.458977         1.712102        -0.492077
 H         2.209056         2.758246         0.349591
 H         1.751035         1.149709         3.577874
 H        -0.522408        -0.860312        -0.545687
 H        -0.404845         0.853795        -0.214087
 H         0.804634         0.070802        -1.206180
 H         1.239854        -1.979448         1.604677
 H         2.447630        -1.817687         0.231432
 H         3.925342        -0.733727         3.540914
