19
Iteration:  4721
 C         3.180884         1.523153         0.181781
 C         2.303586         0.809609         1.133025
 C         1.788002         0.781617         2.584890
 O         0.434424         0.265720         2.226256
 C         1.053985        -0.097477         0.940964
 C         0.034803        -0.048127        -0.298763
 C         1.769215        -1.393037         1.378976
 C         2.763177        -0.262375         2.131260
 O         4.131059        -0.367248         2.448204
 H         3.313503         2.564231         0.346599
 H         4.132589         1.135095         0.372727
 H         2.970136         1.381575        -0.937311
 H         1.898422         1.402726         3.484547
 H        -0.930109        -0.555823        -0.035245
 H        -0.108734         1.057754        -0.683010
 H         0.546396        -0.561601        -1.117309
 H         1.111975        -2.090098         1.755923
 H         2.487579        -1.900070         0.721055
 H         4.171857        -0.634994         3.386155
