19
Iteration:  4735charge 0 multiplicity 1
 C         3.174177         1.543515         0.243729
 C         2.322281         0.691183         1.180536
 C         1.770479         0.863776         2.536492
 O         0.547571         0.354184         2.223693
 C         0.959374        -0.193936         0.870141
 C         0.043783        -0.029093        -0.305205
 C         1.767875        -1.413768         1.333449
 C         2.754461        -0.387468         2.142504
 O         4.134560        -0.275168         2.507973
 H         3.182009         2.646564         0.606337
 H         4.172280         1.039749        -0.047390
 H         2.568169         1.479464        -0.684901
 H         1.924210         1.494792         3.406883
 H        -1.051265        -0.420827        -0.092801
 H        -0.085143         1.007218        -0.582715
 H         0.377975        -0.670307        -1.234868
 H         1.281033        -2.196542         1.918206
 H         2.259538        -1.770285         0.410504
 H         4.319375        -0.827067         3.288474
