19
Iteration:   268charge 0 multiplicity 1
 C         2.992052         2.058907         0.619230
 C         2.347492         0.886232         1.193434
 C         1.752587         0.606233         2.621426
 O         0.434324         0.215368         2.135765
 C         1.068923        -0.012701         0.819010
 C         0.144484        -0.159444        -0.283243
 C         1.924355        -1.325395         1.196765
 C         2.786749        -0.426297         2.054351
 O         4.059803        -0.681905         2.448434
 H         3.778313         2.481477         1.300957
 H         3.485718         1.928552        -0.304318
 H         2.115963         2.848094         0.443078
 H         1.751378         1.165152         3.493909
 H        -0.360193        -1.097655        -0.388224
 H        -0.733561         0.577229        -0.179749
 H         0.785602        -0.005829        -1.220102
 H         1.473501        -2.256167         1.648959
 H         2.387926        -1.487223         0.223051
 H         4.576045        -0.304591         1.697442
