19
Iteration:  3222charge 0 multiplicity 1
 C         3.094343         1.810949         0.266839
 C         2.341659         0.757911         1.017733
 C         1.900708         0.749727         2.439537
 O         0.509683         0.471368         2.179012
 C         1.000406        -0.128710         0.895250
 C         0.028167        -0.180343        -0.216551
 C         1.855783        -1.416754         1.382718
 C         2.802977        -0.361141         1.976411
 O         4.015107        -0.556296         2.665865
 H         3.402658         2.501090         1.012035
 H         3.901190         1.581337        -0.479526
 H         2.227617         2.509286        -0.210990
 H         2.120890         1.439149         3.177565
 H        -0.655564        -1.149252        -0.293293
 H        -0.490161         0.807022        -0.258262
 H         0.806688        -0.275494        -1.129028
 H         1.277827        -2.101255         2.108372
 H         2.112896        -2.037415         0.488833
 H         3.981744        -0.765310         3.631368
