19
Iteration:   986
 C         2.915990         1.993767         0.577411
 C         2.311033         0.831447         1.197417
 C         1.759005         0.554677         2.577590
 O         0.455028         0.326727         2.053726
 C         1.088415        -0.069564         0.823686
 C         0.074072        -0.137715        -0.227217
 C         2.105455        -1.300669         1.127130
 C         2.800997        -0.417930         2.019987
 O         4.036861        -0.597656         2.584722
 H         3.721577         2.500490         1.133433
 H         3.219633         1.817082        -0.520414
 H         2.041270         2.674188         0.458036
 H         1.677928         1.341057         3.455024
 H        -0.608469        -0.877427         0.064319
 H        -0.385279         0.842054        -0.367994
 H         0.596596        -0.392032        -1.188009
 H         1.509320        -2.106708         1.600535
 H         2.713556        -1.508482         0.300448
 H         4.353415        -1.478449         2.407622
