19
Iteration:    83
 C         2.914319         2.118771         0.645883
 C         2.370191         0.835947         1.133901
 C         1.785154         0.655946         2.569234
 O         0.475340         0.131742         2.190956
 C         1.120403        -0.116247         0.803392
 C         0.125030        -0.076045        -0.284699
 C         1.960939        -1.332881         1.168104
 C         2.791018        -0.306438         1.950135
 O         3.978257        -0.761266         2.475456
 H         3.637497         2.528978         1.387490
 H         3.455459         2.124292        -0.341817
 H         2.017470         2.798922         0.592652
 H         2.055432         1.157730         3.567877
 H        -0.248342        -1.116702        -0.492311
 H        -0.788475         0.487989         0.078059
 H         0.609709         0.499631        -1.127742
 H         1.252788        -2.141863         1.623464
 H         2.669026        -1.679066         0.331198
 H         4.642777        -0.029243         2.591657
