19
Iteration:  3346
 C         3.057636         1.774964         0.124873
 C         2.394623         0.746917         1.119628
 C         1.753662         0.787902         2.495131
 O         0.395876         0.336190         2.096054
 C         1.138480        -0.188032         0.880521
 C         0.114749        -0.064626        -0.249844
 C         1.866245        -1.370607         1.505808
 C         2.751459        -0.356757         2.122097
 O         4.096173        -0.544777         2.580077
 H         4.097081         1.973464         0.424289
 H         3.071477         1.601281        -0.973737
 H         2.533911         2.724238         0.215354
 H         1.929186         1.536903         3.278743
 H        -0.799402        -0.625068         0.099438
 H        -0.162663         1.092539        -0.242411
 H         0.445038        -0.466170        -1.210877
 H         1.250468        -2.027287         2.127558
 H         2.264919        -1.874187         0.638354
 H         3.946180        -0.632889         3.553418
