19
Iteration:   324charge 0 multiplicity 1
 C         2.928796         1.931992         0.315351
 C         2.251505         0.813421         1.156601
 C         1.792391         0.631526         2.617562
 O         0.487217        -0.051573         2.244806
 C         1.061311        -0.189476         0.850128
 C         0.223911         0.239235        -0.228606
 C         1.957311        -1.370003         1.123212
 C         2.758317        -0.318568         1.980895
 O         4.003675        -0.519551         2.670436
 H         3.816879         2.242933         0.943084
 H         3.175625         1.496081        -0.639332
 H         2.133293         2.767725         0.180042
 H         1.913363         1.075639         3.611813
 H        -0.760682        -0.160663        -0.335706
 H         0.129824         1.366337        -0.064960
 H         0.994049         0.096438        -1.091043
 H         1.412211        -2.207009         1.598720
 H         2.469158        -1.847021         0.263052
 H         4.541915        -0.639087         1.830459
