19
Iteration:  3637
 C         3.008903         1.700344         0.137248
 C         2.295085         0.823277         1.125080
 C         1.793921         0.862895         2.541413
 O         0.469747         0.442862         2.187660
 C         1.026534        -0.102719         0.921375
 C         0.145627        -0.161427        -0.340697
 C         1.870034        -1.333126         1.438693
 C         2.804836        -0.330943         2.076626
 O         4.122952        -0.691750         2.576870
 H         3.530465         2.568229         0.514842
 H         3.652924         1.140831        -0.541613
 H         2.228442         2.297913        -0.387181
 H         1.913719         1.542319         3.413534
 H        -0.742227        -0.759699         0.216361
 H        -0.207753         0.804279        -0.648739
 H         0.589013        -0.580564        -1.339443
 H         1.174016        -1.775235         2.191390
 H         2.351908        -1.916181         0.719676
 H         4.059942        -0.911079         3.541566
