19
Iteration:  4611
 C         2.951395         1.846962         0.198346
 C         2.384822         0.741732         1.039168
 C         1.893829         0.831826         2.438255
 O         0.543046         0.481657         2.203370
 C         1.044306        -0.113915         0.947054
 C         0.084231        -0.159346        -0.279493
 C         1.857022        -1.332899         1.458623
 C         2.819554        -0.336700         2.077065
 O         4.034718        -0.760992         2.596965
 H         2.235959         1.950754        -0.586580
 H         2.868415         2.700479         0.801485
 H         4.018354         1.693723        -0.294054
 H         2.046070         1.684625         3.116695
 H        -0.819256        -0.797352        -0.204428
 H        -0.556358         0.845509        -0.468543
 H         0.542994        -0.498340        -1.201319
 H         1.202370        -1.888103         2.077859
 H         2.259590        -1.908128         0.613463
 H         3.914336        -1.119730         3.504340
