19
Iteration:  4161
 C         3.167930         1.678427         0.216764
 C         2.391087         0.709204         1.048114
 C         1.879125         0.800606         2.510830
 O         0.574539         0.454148         2.225693
 C         1.072730        -0.120654         0.889791
 C        -0.054153         0.041656        -0.072205
 C         1.719674        -1.361017         1.381454
 C         2.717949        -0.395065         2.022082
 O         4.048883        -0.605987         2.424714
 H         3.771518         2.328827         0.842795
 H         3.895637         1.243695        -0.438986
 H         2.409749         2.275652        -0.432254
 H         2.046716         1.257085         3.503000
 H        -0.876596        -0.612216         0.231838
 H        -0.470251         1.033673        -0.100515
 H         0.179392        -0.294182        -1.149290
 H         1.266025        -2.169354         2.013910
 H         2.382470        -1.761156         0.644797
 H         4.061021        -1.178787         3.219662
