19
Iteration:  1315
 C         2.928565         1.888370         0.290037
 C         2.355009         0.818685         1.224107
 C         1.811122         0.641909         2.566255
 O         0.485784         0.331355         2.140428
 C         1.097490        -0.055888         0.902435
 C         0.093769        -0.103361        -0.279379
 C         1.945939        -1.351268         1.161727
 C         2.765036        -0.469139         2.060221
 O         4.071604        -0.565973         2.634580
 H         3.761976         2.499226         0.783225
 H         3.363378         1.352395        -0.615268
 H         2.097516         2.546346        -0.086924
 H         1.945987         1.393671         3.438472
 H        -0.407851        -1.137699        -0.375888
 H        -0.700169         0.669054        -0.125973
 H         0.500733         0.109132        -1.271179
 H         1.310385        -2.149421         1.606815
 H         2.545731        -1.594721         0.245359
 H         4.073726        -0.443235         3.609610
