19
Iteration:  1288charge 0 multiplicity 1
 C         3.034249         1.922550         0.315003
 C         2.293830         0.842444         1.100096
 C         1.788387         0.626492         2.556863
 O         0.498253         0.200603         2.234617
 C         1.041688        -0.163155         0.939901
 C         0.095306        -0.060599        -0.272115
 C         1.989202        -1.346864         1.201382
 C         2.820544        -0.304121         1.896720
 O         3.916223        -0.597173         2.702131
 H         3.835286         2.300325         0.903391
 H         3.590306         1.487745        -0.505871
 H         2.356651         2.749920        -0.075841
 H         1.947240         1.211659         3.390451
 H        -0.662459        -0.795358        -0.313657
 H        -0.314981         0.946195        -0.203452
 H         0.578173        -0.114305        -1.277956
 H         1.496058        -2.006463         1.948930
 H         2.479092        -1.769969         0.338130
 H         4.664823         0.048828         2.671680
