19
Iteration:  3859
 C         3.099950         1.635962         0.085912
 C         2.383897         0.753403         1.139176
 C         1.826233         0.736039         2.530303
 O         0.536434         0.425553         2.254845
 C         1.017546        -0.061035         0.935217
 C         0.107481        -0.035364        -0.186325
 C         1.780745        -1.356342         1.268776
 C         2.712373        -0.342932         2.045968
 O         4.042626        -0.531336         2.560785
 H         2.520094         1.860637        -0.798170
 H         3.428173         2.633878         0.445731
 H         4.114196         1.065454        -0.089510
 H         2.154386         1.121032         3.465224
 H        -0.820515        -0.466798         0.315405
 H        -0.263688         0.935247        -0.524359
 H         0.383440        -0.779797        -0.857444
 H         1.293151        -2.200864         1.887480
 H         2.255000        -1.966726         0.448225
 H         3.901896        -0.530756         3.538440
