19
Iteration:   187
 C         2.921348         1.977650         0.574532
 C         2.332460         0.852493         1.308467
 C         1.808314         0.546029         2.607526
 O         0.407073         0.148141         2.071896
 C         1.046437        -0.090370         0.852713
 C         0.055739         0.038447        -0.227008
 C         2.064237        -1.330936         0.991729
 C         2.838453        -0.400082         1.989062
 O         4.040772        -0.573420         2.607568
 H         3.806895         2.444480         1.014769
 H         3.203381         1.601632        -0.481204
 H         2.231442         2.866122         0.440365
 H         1.823568         1.075753         3.646853
 H        -0.809271        -0.518933         0.226618
 H        -0.175286         1.051880        -0.441221
 H         0.329250        -0.517373        -1.091620
 H         1.618604        -2.245505         1.320029
 H         2.615549        -1.558268         0.102552
 H         4.751300        -0.596897         1.942698
