19
Iteration:  2801charge 0 multiplicity 1
 C         2.896595         1.764577         0.168639
 C         2.342431         0.792417         1.113933
 C         1.804182         0.794149         2.495234
 O         0.470622         0.385712         2.232736
 C         1.096004        -0.163146         0.905955
 C         0.105456        -0.007312        -0.252070
 C         1.931542        -1.328300         1.382363
 C         2.852457        -0.274964         1.997118
 O         4.033676        -0.701427         2.621647
 H         3.816974         2.242861         0.650015
 H         3.378220         1.076558        -0.526609
 H         2.319631         2.550611        -0.208588
 H         2.051764         1.410730         3.401167
 H        -0.707076        -0.647539        -0.106147
 H        -0.097565         1.024087        -0.472758
 H         0.632617        -0.370999        -1.116442
 H         1.242932        -2.084969         1.839523
 H         2.498869        -1.815797         0.535900
 H         3.819596        -1.333410         3.313446
