19
Iteration:  2629charge 0 multiplicity 1
 C         3.200974         1.740646         0.347008
 C         2.239467         0.805435         1.094505
 C         1.825839         0.767945         2.440369
 O         0.461317         0.318720         2.173282
 C         1.055940        -0.134905         0.850564
 C         0.024425        -0.078388        -0.219265
 C         1.930360        -1.352692         1.356318
 C         2.736951        -0.322993         2.074913
 O         4.028065        -0.556321         2.501970
 H         3.983769         2.207456         0.933981
 H         3.658153         1.091646        -0.550149
 H         2.604701         2.646596        -0.151468
 H         2.109168         1.474895         3.305029
 H        -0.848614        -0.679701         0.263396
 H        -0.434721         0.944779        -0.087136
 H         0.281489        -0.379771        -1.248147
 H         1.443370        -1.984462         2.047694
 H         2.428378        -1.890562         0.594748
 H         4.142337        -0.802954         3.457246
