19
Iteration:  2014
 C         3.049882         1.760441         0.254952
 C         2.323865         0.715038         1.211519
 C         1.653008         0.773195         2.558411
 O         0.384782         0.402043         2.116787
 C         1.061169        -0.109449         0.931115
 C         0.129363        -0.096204        -0.256022
 C         1.928843        -1.415248         1.354977
 C         2.792878        -0.337434         2.103734
 O         4.149235        -0.462409         2.487018
 H         3.982325         2.087418         0.854873
 H         3.361855         1.204946        -0.594177
 H         2.543265         2.777604        -0.073568
 H         1.735858         1.179973         3.463588
 H        -0.538022        -0.942273        -0.214354
 H        -0.380970         0.863505        -0.483619
 H         0.790438        -0.336473        -1.102367
 H         1.259537        -2.138924         1.752716
 H         2.521635        -1.986807         0.588705
 H         4.276701        -1.289174         2.954216
