19
Iteration:  4793
 C         3.045073         1.823028         0.184819
 C         2.387064         0.745751         1.038568
 C         1.843001         0.879400         2.474852
 O         0.516705         0.362385         2.221333
 C         1.082443        -0.115431         0.839148
 C         0.015209        -0.223227        -0.278822
 C         1.823879        -1.245441         1.427381
 C         2.750947        -0.299084         2.101855
 O         4.074502        -0.660640         2.636335
 H         4.021657         2.305296         0.556790
 H         3.303562         1.219075        -0.797193
 H         2.243342         2.515506        -0.074282
 H         2.054949         1.698108         3.172175
 H        -0.645946        -0.985515         0.152415
 H        -0.517245         0.614908        -0.747080
 H         0.507464        -0.787426        -1.098456
 H         1.143077        -2.008107         1.999119
 H         2.412112        -1.873781         0.765817
 H         4.019238        -0.775002         3.606521
