19
Iteration:  1418charge 0 multiplicity 1
 C         3.006493         1.867356         0.379373
 C         2.374324         0.814987         1.115823
 C         1.721332         0.764954         2.545795
 O         0.417496         0.361450         2.123421
 C         1.080325        -0.167937         0.925553
 C         0.051791        -0.136340        -0.264263
 C         1.971581        -1.379393         1.255408
 C         2.768901        -0.388655         2.052554
 O         4.129142        -0.521975         2.551681
 H         3.924622         2.144302         0.892967
 H         3.302562         1.437501        -0.673679
 H         2.346577         2.713873         0.311706
 H         1.879109         1.151210         3.563387
 H        -0.915315        -0.413112         0.102552
 H        -0.106298         0.848215        -0.730998
 H         0.289668        -0.814200        -1.121817
 H         1.625271        -2.253979         1.787327
 H         2.494347        -1.654018         0.358925
 H         4.085863        -1.158645         3.292773
