19
Iteration:  1184charge 0 multiplicity 1
 C         2.934483         1.982967         0.461654
 C         2.275152         0.861898         1.140872
 C         1.769697         0.751804         2.558147
 O         0.501849         0.222280         2.182840
 C         1.130249        -0.151088         0.859608
 C         0.110955        -0.097002        -0.366764
 C         1.926084        -1.393110         1.268061
 C         2.804834        -0.336949         2.008959
 O         4.039167        -0.601395         2.616741
 H         3.767719         2.335752         1.111467
 H         3.376990         1.872412        -0.535995
 H         2.329438         2.822336         0.422856
 H         1.812856         1.297964         3.465599
 H        -0.718305        -0.819343        -0.305704
 H        -0.343824         0.895775        -0.570565
 H         0.763041        -0.342511        -1.215044
 H         1.559747        -2.214426         1.876010
 H         2.427787        -1.895289         0.441636
 H         4.317749        -1.383906         2.066759
