19
Iteration:  4123charge 0 multiplicity 1
 C         3.298157         1.579774         0.318675
 C         2.345594         0.799654         1.125688
 C         1.819338         0.838271         2.540640
 O         0.514946         0.528574         2.290258
 C         0.868734        -0.002649         0.963411
 C        -0.041876        -0.222428        -0.185605
 C         1.714587        -1.310744         1.382894
 C         2.778447        -0.342952         1.965861
 O         4.155388        -0.618463         2.298081
 H         4.177570         1.642594         1.009422
 H         3.540929         1.240229        -0.737497
 H         3.053481         2.622282         0.283273
 H         2.253125         1.231152         3.439421
 H        -0.771151        -1.081594        -0.111740
 H        -0.662667         0.719872        -0.342204
 H         0.457397        -0.323344        -1.098099
 H         1.032152        -2.118057         1.933274
 H         2.200817        -1.666638         0.383327
 H         3.966373        -0.957032         3.193814
