19
Iteration:  1645
 C         3.101318         1.806656         0.291949
 C         2.332403         0.765533         1.118001
 C         1.773556         0.758960         2.463600
 O         0.396212         0.358285         2.223235
 C         1.071360        -0.174157         0.849755
 C         0.076743        -0.174326        -0.243293
 C         1.851202        -1.352480         1.321617
 C         2.858827        -0.311738         2.036350
 O         4.081267        -0.491109         2.578042
 H         3.873556         2.293680         0.951974
 H         3.549951         1.504915        -0.698412
 H         2.365011         2.584645        -0.046347
 H         1.927631         1.458296         3.414663
 H        -0.873622        -0.419744         0.198770
 H         0.116347         0.897772        -0.527059
 H         0.162812        -0.890334        -1.101901
 H         1.410306        -2.108898         1.966541
 H         2.467527        -1.817809         0.461940
 H         3.944340        -1.267528         3.212845
