19
Iteration:  3143
 C         2.940065         1.713665         0.156362
 C         2.354430         0.744188         1.088485
 C         1.823308         0.827879         2.567678
 O         0.481924         0.341647         2.223347
 C         1.013909        -0.097436         0.923557
 C         0.173008        -0.040194        -0.345702
 C         1.820930        -1.359582         1.376751
 C         2.814053        -0.369831         2.078049
 O         4.047286        -0.548439         2.609276
 H         4.004989         1.945134         0.431825
 H         3.073916         1.210887        -0.797431
 H         2.465337         2.729675        -0.008574
 H         2.048856         1.386579         3.561484
 H        -0.792797        -0.614246        -0.179055
 H         0.001942         0.974116        -0.784882
 H         0.862214        -0.591916        -1.115937
 H         1.330022        -2.128809         2.047523
 H         2.431076        -1.874210         0.544914
 H         4.195064        -0.822589         3.549787
