19
Iteration:  3919
 C         3.337998         1.671680         0.290341
 C         2.396209         0.751197         1.129465
 C         1.819934         0.834960         2.531884
 O         0.496614         0.439100         2.144463
 C         0.998163        -0.155905         0.941788
 C        -0.039467        -0.152725        -0.112162
 C         1.747276        -1.403163         1.374762
 C         2.673439        -0.334199         2.038413
 O         4.049842        -0.468141         2.369818
 H         3.132622         1.752346        -0.794147
 H         3.452695         2.656375         0.746156
 H         4.240575         1.216124         0.300757
 H         2.092771         1.641233         3.214562
 H        -0.669249        -1.018003         0.206564
 H        -0.628362         0.842384        -0.037564
 H         0.308126        -0.219037        -1.277174
 H         1.153435        -1.978328         2.033796
 H         2.173594        -1.982611         0.598259
 H         4.163972        -1.052599         3.149217
