19
Iteration:  4348charge 0 multiplicity 1
 C         3.263594         1.521724         0.182706
 C         2.329917         0.822425         1.108393
 C         1.807284         0.863320         2.560787
 O         0.498466         0.351514         2.226158
 C         1.109605        -0.012371         0.969187
 C        -0.082294        -0.065674        -0.125591
 C         1.822553        -1.310289         1.304017
 C         2.736197        -0.343000         2.078597
 O         4.041267        -0.609276         2.400366
 H         4.224115         1.082041         0.075166
 H         2.804421         1.622399        -0.752314
 H         3.211575         2.601527         0.571908
 H         1.992738         1.415612         3.497216
 H        -0.912129        -0.610583         0.157349
 H        -0.444847         0.953018        -0.263168
 H         0.375353        -0.402621        -1.011801
 H         1.057536        -2.105876         1.700011
 H         2.401729        -1.660801         0.410288
 H         4.181226        -0.555548         3.361044
