19
Iteration:  1163
 C         2.892356         2.027247         0.407825
 C         2.408706         0.799006         1.189034
 C         1.744266         0.599401         2.508550
 O         0.387142         0.278477         2.082226
 C         1.145635        -0.123784         0.889283
 C         0.124168        -0.053181        -0.259443
 C         1.974965        -1.309868         1.257125
 C         2.797957        -0.435359         2.032595
 O         4.098754        -0.589573         2.580376
 H         3.827572         2.465525         0.834887
 H         3.311569         1.574744        -0.529513
 H         2.163228         2.727931         0.261517
 H         1.875830         1.196394         3.401805
 H        -0.503824        -0.934634        -0.137539
 H        -0.537069         0.780378        -0.044984
 H         0.482874         0.015238        -1.256512
 H         1.427749        -2.163090         1.606264
 H         2.516014        -1.626980         0.346008
 H         3.976496        -1.175382         3.324140
