19
Iteration:   491charge 0 multiplicity 1
 C         3.092556         1.940100         0.370192
 C         2.323019         0.952517         1.140459
 C         1.850459         0.603804         2.536069
 O         0.462833         0.092298         2.247105
 C         0.987590        -0.176882         0.947911
 C         0.128741         0.024038        -0.240965
 C         1.918464        -1.288585         1.143879
 C         2.784742        -0.357213         1.881415
 O         3.927174        -0.594884         2.699634
 H         3.876477         2.494467         0.895254
 H         3.303092         1.472409        -0.699194
 H         2.390957         2.785303         0.146001
 H         2.036613         0.998959         3.481002
 H        -0.789760        -0.685516        -0.264846
 H        -0.103104         1.058443        -0.430223
 H         0.758199        -0.265094        -1.054266
 H         1.469221        -2.071411         1.736244
 H         2.408851        -1.810024         0.268189
 H         4.741537        -0.393291         2.149189
