19
Iteration:  4456
 C         3.047928         1.810976         0.195520
 C         2.325440         0.813402         1.064728
 C         1.925724         0.856720         2.483361
 O         0.502512         0.552571         2.216823
 C         1.098537        -0.104828         0.952602
 C         0.134179        -0.180955        -0.126479
 C         1.738771        -1.405963         1.369906
 C         2.747110        -0.362057         2.027196
 O         4.003898        -0.764003         2.483755
 H         3.517839         1.453980        -0.707358
 H         2.351160         2.548150        -0.154361
 H         3.854291         2.378549         0.723387
 H         2.197547         1.504544         3.333585
 H        -0.505605        -0.992335         0.040597
 H        -0.459009         0.737773        -0.341932
 H         0.555722        -0.401547        -1.115099
 H         1.263633        -2.082207         2.040396
 H         2.350551        -1.912994         0.664285
 H         3.927132        -1.048182         3.412503
