19
Iteration:   367
 C         2.918508         1.923658         0.363130
 C         2.321126         0.837738         1.226414
 C         1.759272         0.505810         2.606726
 O         0.492901         0.258337         2.098073
 C         1.110236        -0.125577         0.865998
 C         0.028984         0.042286        -0.219847
 C         2.034102        -1.313812         1.058836
 C         2.825046        -0.438717         2.030742
 O         4.017056        -0.582050         2.712250
 H         3.814487         2.398390         0.893064
 H         3.119950         1.758226        -0.688367
 H         2.065435         2.793286         0.363435
 H         1.940019         0.988327         3.596556
 H        -0.919636        -0.389518        -0.000207
 H        -0.286413         1.125939        -0.124425
 H         0.402868        -0.052374        -1.294411
 H         1.617523        -2.300399         1.340119
 H         2.621081        -1.464605         0.159336
 H         4.864908        -0.938004         2.324014
