19
Iteration:  3844
 C         3.022034         1.676136         0.092786
 C         2.375415         0.759243         1.063906
 C         1.913447         0.762337         2.557845
 O         0.482518         0.426989         2.215066
 C         1.108159        -0.077136         0.931843
 C         0.108124        -0.007439        -0.170568
 C         1.814536        -1.415100         1.392180
 C         2.773115        -0.466056         2.024723
 O         3.979718        -0.528510         2.572832
 H         2.300622         1.882709        -0.741780
 H         3.205332         2.650542         0.589157
 H         3.933351         1.329506        -0.415046
 H         2.154602         1.537493         3.357491
 H        -0.821287        -0.307503         0.187094
 H         0.122812         0.997498        -0.480379
 H         0.479819        -0.569940        -1.069115
 H         1.079240        -2.061460         1.972734
 H         2.242494        -1.814056         0.502494
 H         3.899905        -0.876367         3.490489
