19
Iteration:  2857
 C         3.225576         1.715805         0.467055
 C         2.357698         0.747760         1.094453
 C         1.850095         0.757271         2.513630
 O         0.445185         0.483536         2.126647
 C         0.912759        -0.095672         0.926026
 C        -0.025894        -0.204013        -0.227119
 C         1.823244        -1.359901         1.340794
 C         2.829138        -0.410909         1.959227
 O         4.082348        -0.447349         2.443614
 H         3.912182         1.790056         1.364091
 H         3.826509         1.261538        -0.384386
 H         2.829653         2.617731         0.115999
 H         2.015512         1.491388         3.226309
 H        -0.594748        -1.072525         0.038428
 H        -0.813518         0.525281        -0.320100
 H         0.437303        -0.484094        -1.104600
 H         1.278491        -2.092121         1.930332
 H         2.169611        -1.852377         0.412439
 H         4.194053        -0.629480         3.408272
