19
Iteration:  1042
 C         3.007765         2.000350         0.572120
 C         2.236703         0.837194         1.088245
 C         1.817247         0.619850         2.573755
 O         0.449537         0.188669         2.253532
 C         1.024223        -0.178174         0.856469
 C         0.186042        -0.072758        -0.366749
 C         1.961854        -1.346457         1.206672
 C         2.813566        -0.330766         1.893820
 O         3.986031        -0.589672         2.529183
 H         3.812963         2.267185         1.346251
 H         3.559577         1.913697        -0.457381
 H         2.347712         2.838683         0.558353
 H         1.954460         0.941140         3.599574
 H        -0.673625        -0.488905         0.070752
 H        -0.109593         0.934531        -0.603941
 H         0.515042        -0.687622        -1.203363
 H         1.497641        -2.205866         1.676307
 H         2.492324        -1.766621         0.377809
 H         4.427208         0.233866         2.925912
