19
Iteration:    85charge 0 multiplicity 1
 C         2.891923         2.102675         0.649860
 C         2.371242         0.815759         1.145188
 C         1.777455         0.659735         2.568688
 O         0.473086         0.141801         2.182172
 C         1.125385        -0.095123         0.827947
 C         0.116952        -0.066040        -0.294853
 C         1.964522        -1.339648         1.167642
 C         2.801144        -0.319370         1.948302
 O         3.992746        -0.752357         2.473548
 H         3.632529         2.537352         1.395539
 H         3.450249         2.102845        -0.386007
 H         2.059675         2.753651         0.590160
 H         1.997949         1.121811         3.545467
 H        -0.247404        -1.060433        -0.495088
 H        -0.808222         0.488277         0.029754
 H         0.624395         0.483865        -1.149741
 H         1.299466        -2.107950         1.591531
 H         2.665386        -1.717435         0.344846
 H         4.654744        -0.021367         2.594153
