19
Iteration:  2781charge 0 multiplicity 1
 C         2.850520         1.767989         0.097982
 C         2.358881         0.760837         1.106167
 C         1.880161         0.759918         2.566667
 O         0.515613         0.379174         2.192892
 C         1.048364        -0.057270         0.913658
 C         0.160755         0.051572        -0.285365
 C         1.925733        -1.402045         1.329293
 C         2.757664        -0.449733         2.103746
 O         4.075975        -0.599738         2.689862
 H         3.622977         2.404368         0.381740
 H         3.067181         1.225292        -0.866548
 H         1.971622         2.296944        -0.027535
 H         2.141860         1.448069         3.358329
 H        -0.769179        -0.443940        -0.107931
 H         0.051366         1.100865        -0.549856
 H         0.570934        -0.354854        -1.165588
 H         1.302544        -2.350791         1.857550
 H         2.281497        -1.796694         0.330858
 H         3.884730        -1.245905         3.398165
