19
Iteration:  4327charge 0 multiplicity 1
 C         3.382466         1.598209         0.293139
 C         2.323456         0.839479         1.116733
 C         1.798369         0.748541         2.510317
 O         0.470617         0.511700         2.223754
 C         1.007624        -0.130014         0.984995
 C        -0.070356        -0.096141        -0.087279
 C         1.824776        -1.391507         1.310413
 C         2.710138        -0.338997         1.997383
 O         4.032073        -0.540995         2.343386
 H         4.301260         1.051739         0.285778
 H         3.037299         1.548664        -0.704689
 H         3.433776         2.774984         0.369649
 H         2.239142         1.403810         3.252672
 H        -0.816409        -0.862309         0.189466
 H        -0.691453         0.825691         0.062706
 H         0.362514        -0.308601        -1.035135
 H         1.400630        -2.249972         1.992389
 H         2.445373        -1.716946         0.438054
 H         3.891305        -0.816354         3.270149
