19
Iteration:  2071
 C         3.158453         1.845791         0.317577
 C         2.324397         0.868961         1.117138
 C         1.771248         0.780330         2.497009
 O         0.416555         0.284431         2.131135
 C         1.029510        -0.194264         0.899727
 C        -0.005710        -0.129852        -0.240690
 C         1.970829        -1.425564         1.292267
 C         2.818463        -0.340261         2.062212
 O         4.036315        -0.557048         2.605017
 H         4.009190         2.213254         0.925739
 H         3.678270         1.332259        -0.461340
 H         2.516382         2.616244        -0.269698
 H         2.113640         1.571792         3.246813
 H        -0.954164        -0.429941         0.236875
 H        -0.262689         0.884133        -0.611191
 H         0.150312        -0.834536        -1.070654
 H         1.572519        -2.309986         1.814938
 H         2.495661        -1.630310         0.348078
 H         3.994124         0.008035         3.429103
