19
Iteration:  2239charge 0 multiplicity 1
 C         3.194563         1.666375         0.279511
 C         2.303074         0.804081         1.140221
 C         1.758893         0.733991         2.550554
 O         0.470420         0.270157         2.236317
 C         1.048278        -0.128022         0.818298
 C         0.056767        -0.165098        -0.226090
 C         1.867907        -1.296498         1.236766
 C         2.742818        -0.305488         2.007246
 O         4.055037        -0.384824         2.580733
 H         3.947669         2.085239         0.981442
 H         3.734990         0.948588        -0.417005
 H         2.763426         2.441764        -0.238427
 H         1.843611         1.483706         3.364276
 H        -0.888873        -0.546242         0.217460
 H        -0.165305         0.888934        -0.415387
 H         0.365652        -0.662427        -1.137832
 H         1.323156        -2.103694         1.694275
 H         2.489777        -1.686847         0.424867
 H         3.877655        -0.793729         3.484017
