19
Iteration:  2760
 C         2.835443         1.760136         0.110066
 C         2.463322         0.756347         1.132925
 C         1.838279         0.687737         2.554166
 O         0.514189         0.422099         2.213802
 C         1.089042        -0.151760         0.916486
 C         0.250221         0.033152        -0.231726
 C         1.779778        -1.396201         1.254397
 C         2.799202        -0.450751         2.044264
 O         4.027072        -0.527961         2.643406
 H         3.680913         2.192782         0.470366
 H         2.980659         1.399277        -0.960524
 H         2.044789         2.513557         0.025580
 H         1.983179         1.201768         3.470593
 H        -0.743747        -0.387245         0.030938
 H         0.081847         1.116634        -0.381022
 H         0.524343        -0.396706        -1.158539
 H         1.303395        -2.152960         2.008100
 H         2.377610        -1.978161         0.530005
 H         3.819045        -0.751183         3.593721
