19
Iteration:  1882charge 0 multiplicity 1
 C         3.010643         1.866696         0.300751
 C         2.371595         0.856446         1.163348
 C         1.777729         0.701146         2.521322
 O         0.520155         0.270220         2.195969
 C         1.058480        -0.203135         0.869322
 C         0.084340        -0.167288        -0.310305
 C         1.865379        -1.296514         1.334854
 C         2.813818        -0.267886         1.992498
 O         3.990720        -0.625741         2.588378
 H         3.836621         2.237174         0.983816
 H         3.556950         1.488289        -0.528333
 H         2.384540         2.718896        -0.137591
 H         2.120807         1.335129         3.398986
 H        -0.963616        -0.308372         0.060655
 H         0.082671         0.881849        -0.628721
 H         0.192676        -1.003399        -1.049661
 H         1.525771        -2.020643         2.080947
 H         2.374878        -1.743697         0.431180
 H         4.296539         0.146881         3.087590
