19
Iteration:  1929charge 0 multiplicity 1
 C         2.951748         1.824158         0.265417
 C         2.378201         0.766981         1.103088
 C         1.785797         0.831069         2.559160
 O         0.480055         0.381120         2.138110
 C         1.088061        -0.141225         0.842949
 C         0.088830        -0.168153        -0.227642
 C         1.975370        -1.366217         1.257401
 C         2.835313        -0.340786         2.049347
 O         4.010870        -0.660398         2.667267
 H         3.812080         2.316839         0.746067
 H         3.267338         1.609715        -0.718604
 H         2.071447         2.522331         0.097030
 H         1.844354         1.201922         3.519532
 H        -0.785202        -0.772954         0.029136
 H        -0.304713         0.917743        -0.108874
 H         0.409604        -0.503739        -1.220021
 H         1.288987        -2.187494         1.643088
 H         2.529990        -1.658729         0.304600
 H         4.144780         0.072848         3.336067
