19
Iteration:  3581charge 0 multiplicity 1
 C         2.979135         1.825276         0.212530
 C         2.413172         0.712022         1.064784
 C         1.941323         0.721343         2.448733
 O         0.542319         0.528884         2.156698
 C         0.955806        -0.158812         0.874147
 C         0.080161        -0.224606        -0.280881
 C         1.797259        -1.321434         1.413402
 C         2.839803        -0.433763         2.020763
 O         4.014791        -0.499512         2.712529
 H         4.039443         1.859455         0.355765
 H         2.763147         1.770191        -0.855462
 H         2.490727         2.709321         0.528306
 H         2.311523         1.424674         3.116404
 H        -0.529498        -1.210051        -0.281682
 H        -0.657916         0.553349        -0.250127
 H         0.692264        -0.366208        -1.259073
 H         1.140063        -1.824027         2.134542
 H         2.130329        -2.027241         0.669698
 H         3.999816        -0.864659         3.602981
