19
Iteration:  4297charge 0 multiplicity 1
 C         3.275988         1.675156         0.357511
 C         2.391392         0.685002         1.048308
 C         1.871582         0.786097         2.451615
 O         0.574829         0.451569         2.237658
 C         0.993234        -0.042415         0.980107
 C        -0.157768        -0.104638        -0.205712
 C         1.623015        -1.329901         1.368615
 C         2.749417        -0.379724         2.012686
 O         4.149535        -0.509449         2.429150
 H         4.348657         1.594118         0.735126
 H         3.273891         1.363498        -0.746325
 H         2.922354         2.778300         0.508488
 H         2.302274         1.525647         3.120704
 H        -0.632847        -1.145430         0.177107
 H        -0.955221         0.783383        -0.266782
 H         0.273033        -0.252297        -1.215622
 H         1.064265        -2.024643         1.971753
 H         2.095706        -1.932398         0.593822
 H         4.128698        -1.300791         3.002099
