19
Iteration:  2178charge 0 multiplicity 1
 C         2.895934         1.748180         0.260527
 C         2.430191         0.720520         1.163860
 C         1.769330         0.880072         2.528512
 O         0.446317         0.378365         2.088072
 C         1.101721        -0.071060         0.958787
 C         0.191787        -0.082593        -0.325101
 C         1.813290        -1.406787         1.437197
 C         2.724607        -0.370894         2.057189
 O         4.165395        -0.556464         2.545467
 H         3.826350         2.361278         0.584226
 H         2.969061         1.404520        -0.761048
 H         1.985334         2.471364         0.120573
 H         1.732804         1.263615         3.500121
 H        -0.341783        -1.043226        -0.384534
 H        -0.455384         0.833872        -0.349654
 H         0.739207        -0.207752        -1.280599
 H         1.368872        -2.247114         2.038632
 H         2.576371        -1.952929         0.765818
 H         4.063254        -1.109545         3.366540
