19
Iteration:  3857
 C         3.078682         1.643547         0.072036
 C         2.388827         0.744558         1.132613
 C         1.850593         0.729893         2.530299
 O         0.525434         0.427709         2.256969
 C         1.043922        -0.053341         0.942100
 C         0.118664        -0.028713        -0.180294
 C         1.777767        -1.365869         1.265294
 C         2.709052        -0.351049         2.038089
 O         4.024102        -0.527365         2.563949
 H         2.525936         1.893330        -0.814083
 H         3.411146         2.616571         0.503635
 H         4.102559         1.083178        -0.084577
 H         2.074860         1.175185         3.475861
 H        -0.779756        -0.432078         0.288286
 H        -0.213038         0.864465        -0.502501
 H         0.336072        -0.754954        -0.886495
 H         1.279612        -2.216300         1.931684
 H         2.261211        -1.963564         0.514322
 H         3.968076        -0.564252         3.546069
