19
Iteration:   615
 C         2.933612         1.973770         0.627363
 C         2.351366         0.755336         1.199228
 C         1.727193         0.651252         2.608454
 O         0.448177         0.441484         2.089340
 C         1.060300        -0.089701         0.867781
 C         0.188242        -0.158861        -0.334620
 C         1.914551        -1.361174         1.298766
 C         2.798061        -0.420331         1.982123
 O         4.050977        -0.669036         2.443647
 H         3.737311         2.483247         1.196392
 H         3.445239         1.832371        -0.450552
 H         2.098010         2.591396         0.490135
 H         1.903960         1.366316         3.447736
 H        -0.391565        -1.004455        -0.047256
 H        -0.445560         0.759889        -0.280500
 H         0.624855        -0.493152        -1.323820
 H         1.429511        -2.266789         1.783725
 H         2.493187        -1.662767         0.436468
 H         4.802133        -0.246853         1.940475
