19
Iteration:  3735
 C         3.270869         1.640412         0.240344
 C         2.301822         0.817953         1.095447
 C         1.849770         0.856953         2.475493
 O         0.480810         0.410007         2.201608
 C         0.999739        -0.157079         0.889013
 C         0.020649        -0.135724        -0.176606
 C         1.840940        -1.409675         1.365408
 C         2.709574        -0.273385         2.050581
 O         4.020907        -0.531106         2.496922
 H         3.135217         2.734312         0.489676
 H         4.356154         1.306443         0.336354
 H         2.956365         1.694729        -0.874035
 H         1.823324         1.564578         3.386079
 H        -0.615951        -0.955121         0.232280
 H        -0.517185         0.757518        -0.202166
 H         0.477092        -0.474054        -1.148307
 H         1.436391        -2.304399         2.046474
 H         2.378304        -1.842632         0.513132
 H         3.987911        -0.682826         3.472603
