19
Iteration:   405
 C         3.010138         2.086773         0.547205
 C         2.280450         0.925076         1.119221
 C         1.880472         0.607285         2.583831
 O         0.536389         0.221198         2.247219
 C         1.002365        -0.063168         0.846222
 C         0.129597        -0.214178        -0.326434
 C         1.867143        -1.239469         1.208349
 C         2.815622        -0.344084         1.904582
 O         3.939112        -0.734618         2.583343
 H         3.794571         2.286784         1.256189
 H         3.582523         1.850797        -0.409995
 H         2.461527         2.949049         0.414159
 H         1.798659         1.076909         3.509359
 H        -0.558176        -1.120430        -0.258505
 H        -0.351821         0.720491        -0.553941
 H         0.746401        -0.471216        -1.145703
 H         1.400878        -2.039731         1.807905
 H         2.330231        -1.589473         0.239616
 H         4.719244        -0.627395         1.972914
