19
Iteration:  4519charge 0 multiplicity 1
 C         3.357452         1.567014         0.252542
 C         2.352351         0.711153         1.083933
 C         1.799133         0.814905         2.516540
 O         0.435128         0.348283         2.151771
 C         1.003079        -0.151111         0.941953
 C        -0.032049        -0.009831        -0.108822
 C         1.826771        -1.420043         1.349945
 C         2.744649        -0.310698         2.096435
 O         4.031252        -0.383100         2.409844
 H         2.938695         1.461151        -0.799480
 H         3.132530         2.670929         0.543095
 H         4.355037         1.264951         0.216597
 H         1.947813         1.461879         3.395860
 H        -0.897201        -0.626729         0.285809
 H        -0.304841         1.070396         0.063183
 H         0.308754        -0.274978        -1.187647
 H         1.281309        -2.292749         1.818912
 H         2.417351        -1.810001         0.527377
 H         4.107665        -0.850663         3.263728
