19
Iteration:  4998charge 0 multiplicity 1
 C         3.066981         1.869229         0.264252
 C         2.399326         0.707859         0.981074
 C         1.865112         0.885882         2.366755
 O         0.523930         0.451021         2.121734
 C         1.057834        -0.172302         0.796925
 C         0.096806        -0.356799        -0.242850
 C         1.771990        -1.368214         1.482344
 C         2.736307        -0.418478         2.175427
 O         4.028612        -0.443130         2.672384
 H         2.302440         2.213965        -0.511127
 H         3.416546         2.700495         0.932692
 H         3.898608         1.616303        -0.326855
 H         2.247120         1.417741         3.239831
 H        -0.637508        -1.159508         0.214780
 H        -0.569006         0.504267        -0.370030
 H         0.385522        -0.526366        -1.312162
 H         0.909955        -2.018097         1.887965
 H         2.512008        -1.966169         0.757557
 H         4.133348        -0.740355         3.601446
