19
Iteration:  3268
 C         3.220529         1.593023         0.351548
 C         2.278298         0.798107         1.130518
 C         1.738227         0.750056         2.578699
 O         0.460320         0.333619         2.116700
 C         1.025896        -0.134071         0.818820
 C        -0.007179        -0.155445        -0.247043
 C         1.899522        -1.265571         1.372961
 C         2.719378        -0.265254         2.084789
 O         4.132526        -0.443890         2.456659
 H         4.155939         1.799562         0.895298
 H         3.529277         0.827882        -0.444395
 H         2.992576         2.632237        -0.124530
 H         1.750849         1.487048         3.464834
 H        -0.900207        -0.668070         0.318294
 H        -0.258807         0.956236        -0.533962
 H         0.269538        -0.826072        -1.146009
 H         1.268292        -2.030794         1.896539
 H         2.565320        -1.761479         0.693104
 H         4.012670        -0.568128         3.425097
