19
Iteration:  3483
 C         3.221732         1.574870         0.243368
 C         2.354872         0.708150         1.091286
 C         1.811882         0.705329         2.580082
 O         0.482372         0.353125         2.179726
 C         1.025764        -0.044616         0.959862
 C         0.119093        -0.112689        -0.230074
 C         1.860004        -1.410637         1.327385
 C         2.673955        -0.361519         2.022826
 O         4.000455        -0.245408         2.506322
 H         4.019554         1.863055         0.930909
 H         3.607792         1.096806        -0.685155
 H         2.565472         2.491041        -0.136391
 H         1.845995         1.289039         3.539623
 H        -0.977434        -0.380133         0.125842
 H        -0.061952         0.962287        -0.584263
 H         0.371824        -0.872909        -1.095413
 H         1.263733        -2.124549         1.967491
 H         2.101650        -2.006870         0.448566
 H         4.099770        -0.808009         3.282981
