19
Iteration:  2352charge 0 multiplicity 1
 C         2.790479         1.879692         0.207618
 C         2.373963         0.767047         1.060885
 C         1.848429         0.781830         2.619625
 O         0.471522         0.495762         2.090991
 C         1.080452        -0.166415         0.923442
 C         0.244332        -0.141358        -0.324486
 C         1.865190        -1.374396         1.412488
 C         2.856801        -0.356685         2.138981
 O         4.036718        -0.731246         2.598802
 H         3.809091         2.444614         0.297890
 H         3.034939         1.443004        -0.807991
 H         2.099308         2.624795         0.166246
 H         2.122876         1.639958         3.243978
 H        -0.617469        -0.866163        -0.082437
 H        -0.477578         0.793358        -0.222930
 H         0.839744        -0.192110        -1.311871
 H         1.246201        -2.227010         1.853024
 H         2.458726        -1.829134         0.480711
 H         4.008406        -0.815997         3.595997
