19
Iteration:  2475
 C         3.320604         1.693616         0.485194
 C         2.294927         0.842349         1.097303
 C         1.781447         0.764127         2.504269
 O         0.511546         0.349710         2.210466
 C         0.965404        -0.152236         0.883319
 C        -0.022646        -0.232636        -0.235292
 C         1.889673        -1.313229         1.300314
 C         2.737467        -0.261577         1.984217
 O         4.025776        -0.488059         2.430745
 H         4.156503         2.056735         1.014262
 H         3.614282         1.181295        -0.424284
 H         2.892560         2.582076         0.064187
 H         1.898283         1.506932         3.278704
 H        -0.742815        -1.071442         0.017630
 H        -0.562227         0.716252        -0.402401
 H         0.575980        -0.563578        -1.166708
 H         1.315541        -1.943025         1.903700
 H         2.217775        -1.926210         0.550330
 H         3.802192        -0.478090         3.377442
