19
Iteration:  2368charge 0 multiplicity 1
 C         2.813308         1.813202         0.129412
 C         2.396772         0.757845         1.152509
 C         1.836115         0.776288         2.495046
 O         0.502062         0.437212         2.187725
 C         1.105766        -0.120440         0.851494
 C         0.170636        -0.060215        -0.319248
 C         1.919528        -1.374108         1.427395
 C         2.773196        -0.374260         2.109344
 O         4.055319        -0.666395         2.637725
 H         3.664368         2.324783         0.482329
 H         3.026488         1.480312        -0.870379
 H         1.883943         2.578794         0.146813
 H         1.938876         1.359022         3.410755
 H        -0.598746        -0.792523        -0.400849
 H        -0.177005         0.925799        -0.462449
 H         0.808598        -0.212840        -1.186868
 H         1.393401        -2.060139         2.176063
 H         2.479221        -1.799222         0.658435
 H         3.853253        -1.229459         3.400460
