19
Iteration:  1148
 C         2.895944         1.902027         0.405904
 C         2.353602         0.831970         1.239291
 C         1.781798         0.664814         2.626358
 O         0.522850         0.280465         2.089927
 C         1.069307        -0.077956         0.800728
 C         0.086665        -0.048861        -0.256498
 C         1.980260        -1.409494         1.125293
 C         2.823578        -0.362961         2.008322
 O         4.047747        -0.631439         2.616658
 H         3.658561         2.453653         0.928454
 H         3.192500         1.619425        -0.572566
 H         1.977080         2.579267         0.282778
 H         1.852644         1.097085         3.620429
 H        -0.441453        -1.017194        -0.371860
 H        -0.597896         0.830882        -0.096288
 H         0.634377         0.140934        -1.262054
 H         1.517953        -2.264129         1.734132
 H         2.499932        -1.682286         0.230943
 H         4.056901        -0.217766         3.514459
