19
Iteration:  2674
 C         3.282148         1.733034         0.433097
 C         2.420839         0.834974         1.171634
 C         1.842052         0.700482         2.517111
 O         0.377487         0.486969         2.175366
 C         0.999544        -0.101496         0.859213
 C        -0.081172        -0.304528        -0.233550
 C         1.768464        -1.320829         1.308514
 C         2.758488        -0.352661         1.978688
 O         4.116670        -0.445384         2.464379
 H         4.131932         1.857802         1.078995
 H         3.747902         1.132569        -0.475475
 H         3.011457         2.819613        -0.038120
 H         2.011557         1.195810         3.478588
 H        -0.732136        -1.224117         0.116071
 H        -0.860386         0.540029        -0.249388
 H         0.443950        -0.537428        -1.176887
 H         1.305664        -2.145539         1.699432
 H         2.417816        -1.469361         0.476428
 H         4.095623        -1.160060         3.143215
