19
Iteration:   613charge 0 multiplicity 1
 C         2.934329         1.978072         0.626761
 C         2.354001         0.752568         1.196664
 C         1.721504         0.646327         2.582371
 O         0.438249         0.433438         2.111214
 C         1.071957        -0.103422         0.863986
 C         0.193620        -0.154804        -0.343296
 C         1.903931        -1.356095         1.317636
 C         2.809767        -0.413294         1.979898
 O         4.048866        -0.671836         2.448375
 H         3.700041         2.491926         1.207545
 H         3.424854         1.829112        -0.438953
 H         2.127930         2.654377         0.468524
 H         2.010152         1.385024         3.442257
 H        -0.420709        -1.029136        -0.062257
 H        -0.404204         0.777189        -0.342036
 H         0.614722        -0.411083        -1.305281
 H         1.490345        -2.243015         1.796652
 H         2.442404        -1.654424         0.402175
 H         4.714570        -0.257442         1.900710
