19
Iteration:  4062charge 0 multiplicity 1
 C         3.134195         1.682645         0.165039
 C         2.367470         0.729695         1.101523
 C         1.844203         0.719021         2.448717
 O         0.492056         0.445639         2.224434
 C         0.993484        -0.078124         0.972877
 C        -0.057793         0.041170        -0.196996
 C         1.752259        -1.400764         1.446325
 C         2.817977        -0.378460         1.995405
 O         4.168876        -0.592657         2.528157
 H         4.105774         1.240075        -0.104972
 H         2.592111         1.751796        -0.789685
 H         3.262214         2.709495         0.544403
 H         2.175393         1.494992         3.180659
 H        -1.022080        -0.435143         0.107778
 H        -0.249779         1.106955        -0.286409
 H         0.315634        -0.352082        -1.212908
 H         1.222299        -2.087588         2.014630
 H         2.174090        -1.893744         0.623373
 H         4.001631        -1.035566         3.397992
