19
Iteration:  4450charge 0 multiplicity 1
 C         3.011549         1.802556         0.180212
 C         2.353536         0.839655         1.089808
 C         1.935080         0.842875         2.497201
 O         0.473485         0.555522         2.188901
 C         1.078660        -0.125180         0.933508
 C         0.108641        -0.140826        -0.169911
 C         1.778922        -1.364832         1.440044
 C         2.747112        -0.391972         1.979489
 O         4.039588        -0.789313         2.507546
 H         3.632934         1.427003        -0.668625
 H         2.180137         2.483415        -0.157218
 H         3.699706         2.417740         0.826235
 H         2.284213         1.576167         3.217769
 H        -0.584508        -1.016395         0.109495
 H        -0.394831         0.814708        -0.253692
 H         0.622895        -0.423915        -1.100921
 H         1.331962        -2.124398         2.203597
 H         2.300438        -1.901803         0.563287
 H         3.924471        -1.128717         3.418051
