19
Iteration:  4630charge 0 multiplicity 1
 C         2.945556         1.967157         0.163303
 C         2.448568         0.795634         1.012673
 C         1.906184         0.785219         2.397640
 O         0.478374         0.526159         2.113203
 C         1.040506        -0.185053         0.917453
 C         0.089198        -0.148587        -0.128884
 C         1.831466        -1.452910         1.533047
 C         2.807085        -0.388554         1.932340
 O         4.001670        -0.718714         2.652014
 H         2.460193         2.374653        -0.711905
 H         3.327878         2.823635         0.764082
 H         3.920936         1.701303        -0.195115
 H         2.159745         1.389802         3.261081
 H        -0.530990        -0.997463         0.024629
 H        -0.496775         0.846075         0.039704
 H         0.700314        -0.213017        -1.060066
 H         1.244097        -2.158956         2.192695
 H         2.186163        -2.038672         0.722327
 H         3.894000        -1.193153         3.491986
