19
Iteration:  3682charge 0 multiplicity 1
 C         3.192223         1.538637         0.207522
 C         2.329920         0.762702         1.148086
 C         1.822348         0.753755         2.497323
 O         0.439189         0.401676         2.236639
 C         0.992769        -0.131106         0.876907
 C         0.007617        -0.041378        -0.213137
 C         1.876169        -1.459663         1.319599
 C         2.752555        -0.370166         2.071166
 O         4.063421        -0.316060         2.537982
 H         3.423021         2.481101         0.643179
 H         4.131818         0.971355         0.180750
 H         2.748577         1.772878        -0.811291
 H         2.206101         1.451270         3.315728
 H        -1.118504        -0.376349         0.026818
 H         0.065622         0.991035        -0.642201
 H         0.411505        -0.620695        -1.103191
 H         1.389091        -2.192459         1.997593
 H         2.235147        -1.783812         0.405210
 H         4.146537        -0.761018         3.415549
