19
Iteration:   492
 C         3.083465         1.947212         0.357158
 C         2.318509         0.957875         1.140467
 C         1.846955         0.604024         2.537586
 O         0.463386         0.086080         2.243725
 C         0.999612        -0.170081         0.956399
 C         0.129221         0.022775        -0.236542
 C         1.929859        -1.281611         1.138692
 C         2.776613        -0.367953         1.882755
 O         3.920897        -0.599248         2.700222
 H         3.885524         2.456633         0.890133
 H         3.314228         1.436114        -0.704880
 H         2.431272         2.769083         0.139151
 H         2.055664         1.026659         3.511166
 H        -0.779380        -0.675578        -0.265430
 H        -0.078364         1.074222        -0.398650
 H         0.726762        -0.264957        -1.069672
 H         1.442534        -2.065006         1.747549
 H         2.435547        -1.788669         0.273773
 H         4.765094        -0.388641         2.177630
