19
Iteration:  4642charge 0 multiplicity 1
 C         3.029384         1.930831         0.185994
 C         2.389448         0.807388         1.038360
 C         1.893801         0.768911         2.422648
 O         0.571663         0.514001         2.089880
 C         1.096186        -0.167928         0.970761
 C         0.056353        -0.187393        -0.131875
 C         1.795407        -1.445287         1.428126
 C         2.818498        -0.438766         1.997937
 O         3.985437        -0.624697         2.635932
 H         2.228119         2.233741        -0.436765
 H         3.221108         2.735085         0.845742
 H         3.876829         1.550240        -0.436215
 H         2.115402         1.432232         3.257929
 H        -0.616330        -1.023073        -0.135146
 H        -0.632292         0.805911        -0.058570
 H         0.393770        -0.104763        -1.172896
 H         1.195803        -1.854404         2.224032
 H         2.063234        -2.136497         0.662456
 H         3.671501        -1.150661         3.398904
