19
Iteration:  3747charge 0 multiplicity 1
 C         3.178710         1.659373         0.232836
 C         2.346035         0.786547         1.068155
 C         1.810081         0.848157         2.524181
 O         0.491847         0.457908         2.216571
 C         0.996064        -0.069722         0.975125
 C        -0.004493        -0.249557        -0.236443
 C         1.830643        -1.305362         1.345795
 C         2.781892        -0.345874         2.011912
 O         4.055990        -0.574329         2.542816
 H         3.034849         2.693845         0.576854
 H         4.275465         1.472377         0.444038
 H         3.011473         1.544147        -0.925230
 H         2.261732         1.502790         3.331352
 H        -0.791558        -1.091698        -0.249549
 H        -0.551439         0.686482        -0.492995
 H         0.609853        -0.400820        -1.139979
 H         1.301688        -2.128491         2.030912
 H         2.209576        -1.705740         0.424519
 H         3.972495        -0.659211         3.502071
