19
Iteration:  4974charge 0 multiplicity 1
 C         3.115286         1.735458         0.299423
 C         2.361947         0.725589         1.038268
 C         1.722251         0.836149         2.453608
 O         0.421986         0.437709         2.052017
 C         0.995492        -0.179454         0.916664
 C         0.031580        -0.222542        -0.198620
 C         1.967936        -1.413628         1.503909
 C         2.870589        -0.307105         1.982527
 O         4.032892        -0.461273         2.623573
 H         2.698236         1.802740        -0.743320
 H         3.250506         2.699644         0.725570
 H         4.112325         1.327630         0.104935
 H         1.928348         1.707490         3.099130
 H        -0.846910        -0.872084        -0.081549
 H        -0.303165         0.667303        -0.496892
 H         0.614327        -0.522880        -1.104679
 H         1.531814        -2.105027         2.297033
 H         2.385427        -2.021944         0.557461
 H         3.935602        -0.466526         3.590030
