19
Iteration:  4742charge 0 multiplicity 1
 C         3.149095         1.540215         0.254943
 C         2.371381         0.687046         1.117293
 C         1.800353         0.804647         2.507140
 O         0.470108         0.401055         2.222706
 C         1.001442        -0.152053         0.916125
 C         0.051076        -0.058663        -0.268327
 C         1.827295        -1.429626         1.336936
 C         2.709780        -0.408623         2.106925
 O         4.110900        -0.271557         2.524758
 H         3.209257         2.449517         0.729614
 H         4.053110         1.163434        -0.025547
 H         2.473173         1.646710        -0.665596
 H         1.960668         1.603548         3.243270
 H        -0.949863        -0.372445        -0.007958
 H         0.041391         1.067942        -0.593231
 H         0.331647        -0.514547        -1.177830
 H         1.435466        -2.223998         1.931818
 H         2.241665        -1.875780         0.410927
 H         4.350820        -0.875432         3.256250
