19
Iteration:   573charge 0 multiplicity 1
 C         2.920119         2.016666         0.422433
 C         2.329319         0.843861         1.140196
 C         1.862081         0.619769         2.524211
 O         0.512216         0.128158         2.275954
 C         1.099260        -0.117005         0.870188
 C         0.190499         0.034652        -0.375275
 C         1.860607        -1.393847         1.310138
 C         2.773571        -0.339903         1.934295
 O         3.956266        -0.567090         2.614781
 H         3.790114         2.326480         1.038196
 H         3.427216         1.640941        -0.480160
 H         2.176212         2.793358         0.233188
 H         1.985113         1.209665         3.419791
 H        -0.631333        -0.633796        -0.480486
 H        -0.263493         1.057724        -0.485119
 H         0.909201        -0.228679        -1.231188
 H         1.431837        -2.146602         2.053375
 H         2.148055        -1.758746         0.332886
 H         4.470672        -1.286327         2.153053
