19
Iteration:   810
 C         2.877834         2.145295         0.619409
 C         2.355815         0.827046         1.190312
 C         1.711053         0.618756         2.537697
 O         0.481771         0.391842         2.035205
 C         1.145451        -0.096583         0.786331
 C         0.032510        -0.156416        -0.218971
 C         1.974132        -1.462770         1.080110
 C         2.804526        -0.426557         2.081736
 O         4.126512        -0.711226         2.635676
 H         3.760576         2.497735         1.142456
 H         3.243918         1.981264        -0.424360
 H         2.097948         2.923810         0.578702
 H         1.748530         1.121428         3.453782
 H        -0.717352        -0.872442        -0.000959
 H        -0.491911         0.794833        -0.368492
 H         0.588640        -0.504645        -1.098036
 H         1.390308        -2.295165         1.516445
 H         2.478279        -1.821178         0.226264
 H         4.723898        -0.182247         2.033348
