19
Iteration:  4552charge 0 multiplicity 1
 C         3.183012         1.515714         0.222170
 C         2.240790         0.813383         1.088674
 C         1.859319         0.785530         2.546187
 O         0.439710         0.342401         2.225130
 C         0.954055        -0.127504         0.973929
 C         0.055530         0.039618        -0.255682
 C         1.868613        -1.441720         1.388241
 C         2.763642        -0.324375         2.015664
 O         4.131192        -0.422556         2.489866
 H         2.707255         1.569919        -0.807683
 H         3.279701         2.639552         0.480820
 H         4.128766         1.088148         0.116916
 H         2.036992         1.312971         3.490066
 H        -0.936742        -0.298421         0.125344
 H         0.034228         1.138782        -0.521141
 H         0.328552        -0.552706        -1.199624
 H         1.172075        -2.072837         1.976078
 H         2.254574        -1.902850         0.487786
 H         4.129100        -0.834834         3.371416
