19
Iteration:   230
 C         3.063411         2.184291         0.735799
 C         2.299724         0.889469         1.110960
 C         1.839746         0.613381         2.458093
 O         0.514714         0.152735         2.142530
 C         1.001467        -0.133224         0.888117
 C        -0.059189        -0.177226        -0.299063
 C         1.961416        -1.326125         1.102115
 C         2.839288        -0.337861         1.855761
 O         4.031348        -0.641216         2.658531
 H         3.750642         2.367018         1.559461
 H         3.628807         2.047190        -0.272911
 H         2.395236         3.042131         0.647780
 H         1.981249         1.212115         3.464579
 H        -0.799772        -1.046389        -0.289215
 H        -0.640233         0.737392        -0.274928
 H         0.493968        -0.153644        -1.211306
 H         1.579530        -2.082180         1.779056
 H         2.236037        -1.832359         0.146066
 H         4.654284        -1.108807         2.123387
