19
Iteration:  1396
 C         2.956883         1.846586         0.417171
 C         2.338598         0.801621         1.142134
 C         1.800886         0.613570         2.622960
 O         0.443468         0.411330         2.130465
 C         1.084791        -0.117286         0.898617
 C         0.143076        -0.132203        -0.279347
 C         1.894066        -1.388174         1.271985
 C         2.772721        -0.411404         1.988587
 O         4.070706        -0.530338         2.532058
 H         3.886878         2.199326         0.846301
 H         3.217474         1.420048        -0.640486
 H         2.255709         2.640817         0.347668
 H         2.094683         1.442098         3.196039
 H        -0.671545        -0.784243        -0.056272
 H        -0.261667         0.820769        -0.626285
 H         0.680458        -0.631851        -1.119017
 H         1.372659        -2.190346         1.773830
 H         2.393116        -1.752867         0.387986
 H         4.280015         0.111905         3.255017
