19
Iteration:  4237
 C         2.909853         1.727983         0.094718
 C         2.379731         0.771380         1.088150
 C         1.907045         0.831145         2.560213
 O         0.571185         0.466826         2.337931
 C         1.040645        -0.057898         0.946535
 C         0.098873         0.025503        -0.241340
 C         1.743873        -1.331743         1.328092
 C         2.787499        -0.371386         2.076383
 O         4.103044        -0.856320         2.506650
 H         3.404911         2.526776         0.612339
 H         3.653242         1.301301        -0.543239
 H         2.158623         2.147674        -0.584398
 H         2.263708         1.434465         3.425119
 H        -0.796443        -0.392921        -0.000764
 H        -0.219228         0.939906        -0.518538
 H         0.316297        -0.535248        -1.153007
 H         0.954693        -1.987306         1.882419
 H         2.160872        -1.719295         0.396875
 H         4.282146        -0.701365         3.452824
