19
Iteration:  1846
 C         2.973492         1.804405         0.400397
 C         2.337274         0.743530         1.185385
 C         1.782019         0.713327         2.552591
 O         0.448324         0.493602         2.152475
 C         1.011687        -0.193640         0.854165
 C         0.146495        -0.186348        -0.290669
 C         1.901612        -1.390568         1.293649
 C         2.786643        -0.385843         2.025636
 O         4.108493        -0.513287         2.506404
 H         3.735115         2.410140         0.948305
 H         3.497468         1.321383        -0.535314
 H         2.254651         2.565422         0.192591
 H         1.966164         1.339907         3.502462
 H        -0.824290        -0.495680         0.139649
 H         0.069314         0.780019        -0.687948
 H         0.504279        -0.767026        -1.123027
 H         1.478480        -2.288615         1.748770
 H         2.225977        -1.719158         0.345072
 H         4.280989        -0.162182         3.380058
