19
Iteration:  3963
 C         3.141079         1.720871         0.225834
 C         2.319879         0.742590         1.054068
 C         1.878430         0.828133         2.479774
 O         0.525262         0.534175         2.247723
 C         1.032865        -0.087564         0.945705
 C         0.051141        -0.123796        -0.153010
 C         1.713410        -1.439284         1.433429
 C         2.814658        -0.382129         2.008930
 O         4.038612        -0.621253         2.439921
 H         2.944328         1.562310        -0.845449
 H         2.769271         2.721343         0.459428
 H         4.157725         1.676254         0.307551
 H         1.975564         1.505180         3.339448
 H        -0.600379        -0.990487         0.046281
 H        -0.383980         0.859692        -0.464277
 H         0.827114        -0.335854        -1.026550
 H         1.186234        -2.152102         1.965353
 H         2.168599        -1.839816         0.593069
 H         3.885781        -0.787144         3.394036
