19
Iteration:  4357charge 0 multiplicity 1
 C         3.194989         1.548112         0.179981
 C         2.304358         0.824856         1.140030
 C         1.832650         0.770130         2.550252
 O         0.516997         0.373537         2.271850
 C         0.964778        -0.052119         0.855642
 C        -0.062166        -0.012110        -0.177149
 C         1.798603        -1.280022         1.303288
 C         2.770383        -0.310086         2.120922
 O         4.143435        -0.638718         2.466312
 H         4.174743         1.105959         0.003642
 H         2.656417         1.572358        -0.787431
 H         3.435274         2.593616         0.347854
 H         2.148913         1.490033         3.315631
 H        -0.915904        -0.554359         0.120956
 H        -0.377264         0.958393        -0.452696
 H         0.316430        -0.520188        -1.096438
 H         1.192251        -2.074651         1.820166
 H         2.432554        -1.696348         0.520355
 H         4.096159        -0.568332         3.434323
