19
Iteration:  4785
 C         3.080302         1.786139         0.153468
 C         2.435716         0.810289         1.122441
 C         1.835813         0.879760         2.464635
 O         0.477219         0.340279         2.203952
 C         1.030556        -0.131931         0.853213
 C         0.005346        -0.233344        -0.268962
 C         1.840488        -1.318668         1.447320
 C         2.836106        -0.311998         2.077260
 O         4.041710        -0.607628         2.603831
 H         3.790086         2.342721         0.668763
 H         3.482482         1.253998        -0.653832
 H         2.290769         2.471932        -0.249250
 H         2.057056         1.696170         3.157892
 H        -0.852114        -0.751961         0.002505
 H        -0.307249         0.806800        -0.582420
 H         0.381403        -0.670141        -1.114308
 H         1.127173        -1.908747         2.087113
 H         2.408255        -1.976662         0.726023
 H         3.920954        -0.821757         3.551448
