19
Iteration:  1460
 C         3.097793         1.892043         0.274592
 C         2.241000         0.855218         1.136695
 C         1.793147         0.741965         2.517833
 O         0.501683         0.254949         2.199132
 C         1.048996        -0.144199         0.848740
 C         0.039149        -0.116810        -0.260536
 C         1.964518        -1.354335         1.328452
 C         2.812435        -0.326230         1.968349
 O         3.949385        -0.612876         2.688379
 H         3.805588         2.374476         0.982404
 H         3.615579         1.484460        -0.689738
 H         2.553111         2.735902        -0.016986
 H         2.043973         1.053031         3.517326
 H        -0.919036        -0.305405         0.253924
 H        -0.056163         0.818780        -0.831787
 H         0.350406        -0.944479        -0.953032
 H         1.548370        -2.188978         1.859080
 H         2.565477        -1.746124         0.437582
 H         4.670500        -0.204749         2.189680
