19
Iteration:  3040
 C         3.229518         1.758699         0.324041
 C         2.363444         0.831812         1.135446
 C         1.795959         0.698939         2.541696
 O         0.460510         0.496316         2.191124
 C         0.964708        -0.088368         0.902150
 C         0.043178        -0.292655        -0.268531
 C         1.807432        -1.310777         1.323998
 C         2.771886        -0.324689         1.977162
 O         4.062812        -0.535120         2.541003
 H         4.026669         2.353702         0.907827
 H         3.810367         1.192742        -0.489389
 H         2.536824         2.498328        -0.182489
 H         2.236481         1.281202         3.308389
 H        -0.510164        -1.199173         0.074071
 H        -0.764722         0.504476        -0.368989
 H         0.543607        -0.540911        -1.200178
 H         1.138933        -2.109194         1.902685
 H         2.238683        -1.837635         0.371521
 H         4.023415        -0.858933         3.439633
