19
Iteration:  3675charge 0 multiplicity 1
 C         3.195818         1.542204         0.178934
 C         2.311672         0.760120         1.078034
 C         1.849523         0.759996         2.553341
 O         0.458882         0.415761         2.245445
 C         0.980578        -0.159368         0.942355
 C         0.107331        -0.058607        -0.229032
 C         1.852419        -1.370457         1.314188
 C         2.748179        -0.391137         2.074365
 O         4.009470        -0.343487         2.515609
 H         3.348627         2.448190         0.820495
 H         4.208576         1.214879        -0.112828
 H         2.623442         1.672017        -0.722470
 H         1.942155         1.332984         3.446812
 H        -0.889756        -0.377728         0.004054
 H        -0.071094         1.019026        -0.599164
 H         0.346358        -0.779505        -0.948585
 H         1.466978        -2.163718         1.928752
 H         2.333553        -1.839809         0.358884
 H         4.016888        -0.738362         3.411305
