19
Iteration:  1857charge 0 multiplicity 1
 C         2.965185         1.851965         0.315729
 C         2.354970         0.735471         1.169143
 C         1.753389         0.748186         2.557381
 O         0.416744         0.448951         2.172794
 C         1.078456        -0.066681         0.951206
 C         0.133699        -0.165528        -0.311442
 C         1.876053        -1.458471         1.253700
 C         2.787522        -0.474600         2.038100
 O         4.128694        -0.518513         2.526249
 H         3.650238         2.061980         1.135769
 H         3.702279         1.656629        -0.578122
 H         2.397206         2.679136        -0.017202
 H         2.042080         1.255999         3.573706
 H        -0.871331        -0.523393        -0.008604
 H        -0.033005         0.725281        -0.815185
 H         0.444156        -1.028449        -0.873376
 H         1.467134        -2.319258         1.783599
 H         2.436759        -1.674296         0.391414
 H         4.013452         0.162016         3.245153
