19
Iteration:  3157charge 0 multiplicity 1
 C         2.901187         1.707934         0.147109
 C         2.304916         0.808594         1.165453
 C         1.827497         0.796352         2.507702
 O         0.470822         0.430558         2.216791
 C         1.074213        -0.144074         0.920143
 C         0.214943        -0.091660        -0.331213
 C         1.934307        -1.319139         1.418320
 C         2.780877        -0.293125         2.078251
 O         4.077225        -0.708969         2.600088
 H         3.783481         2.071789         0.519278
 H         2.955903         1.316902        -0.899336
 H         2.104489         2.537294        -0.054905
 H         1.948931         1.549655         3.174543
 H        -0.793112        -0.571594        -0.384422
 H        -0.120589         0.960608        -0.406965
 H         0.785462        -0.464570        -1.254653
 H         1.357734        -1.996829         1.998744
 H         2.407138        -1.787288         0.592237
 H         3.721570        -0.814934         3.493103
