19
Iteration:  1654charge 0 multiplicity 1
 C         3.070754         1.773526         0.313186
 C         2.394313         0.779990         1.111123
 C         1.736932         0.749198         2.529294
 O         0.413764         0.424870         2.136321
 C         1.044660        -0.106466         0.906907
 C         0.050666        -0.184090        -0.240673
 C         1.898401        -1.403168         1.345600
 C         2.770767        -0.376756         1.951093
 O         4.138939        -0.457064         2.602974
 H         3.825839         2.416133         0.894399
 H         3.522533         1.358908        -0.570855
 H         2.184899         2.499073         0.076147
 H         1.955362         1.060055         3.580759
 H        -0.962276        -0.323316         0.132262
 H        -0.077942         0.788513        -0.719294
 H         0.355007        -0.834841        -1.083359
 H         1.387614        -2.108861         1.991984
 H         2.482491        -1.870231         0.477210
 H         4.254958        -1.320443         3.101617
