19
Iteration:  2980charge 0 multiplicity 1
 C         2.886587         1.820161         0.100906
 C         2.381305         0.751295         1.102016
 C         1.793142         0.826764         2.471761
 O         0.500731         0.351555         2.143073
 C         1.039676        -0.189556         0.971886
 C         0.187611         0.075030        -0.308514
 C         1.856703        -1.444548         1.456997
 C         2.843746        -0.351951         2.070291
 O         4.086040        -0.675768         2.656667
 H         3.648071         2.442880         0.628955
 H         3.300966         1.418762        -1.055154
 H         1.972469         2.553931        -0.069138
 H         2.047897         1.519401         3.414738
 H        -0.777549        -0.448016        -0.285782
 H        -0.134568         1.080025        -0.492684
 H         0.685346        -0.325909        -1.209691
 H         1.223473        -1.931775         2.253157
 H         2.244165        -2.146502         0.760944
 H         3.911994        -0.900640         3.586006
