19
Iteration:  1140charge 0 multiplicity 1
 C         2.890929         1.914517         0.394954
 C         2.310613         0.829345         1.185758
 C         1.802413         0.649281         2.647710
 O         0.515190         0.267888         2.207576
 C         1.107406        -0.102814         0.843080
 C         0.082311        -0.022222        -0.332005
 C         2.024245        -1.398117         1.077870
 C         2.755912        -0.345661         1.963481
 O         4.042564        -0.656660         2.669185
 H         3.739087         2.447860         0.869103
 H         3.330626         1.510924        -0.531514
 H         2.118378         2.576448         0.248305
 H         1.895348         1.218684         3.491192
 H        -0.440151        -0.965451        -0.387197
 H        -0.693636         0.755062        -0.193743
 H         0.647410         0.164460        -1.268903
 H         1.355346        -2.164590         1.523556
 H         2.615438        -1.887058         0.323842
 H         4.193048         0.188115         3.240992
