19
Iteration:  3928
 C         3.345679         1.684409         0.313884
 C         2.322927         0.697461         1.056166
 C         1.835966         0.772895         2.544957
 O         0.488434         0.491726         2.170179
 C         1.004296        -0.101057         0.895756
 C        -0.095631        -0.120001        -0.175315
 C         1.740410        -1.374515         1.471105
 C         2.732201        -0.390249         2.009388
 O         4.116288        -0.458281         2.408732
 H         2.951644         1.768539        -0.733302
 H         3.342549         2.727276         0.675427
 H         4.312537         1.291128         0.337012
 H         2.083086         1.425024         3.397918
 H        -0.644168        -1.055975        -0.067631
 H        -0.906798         0.670352        -0.279743
 H         0.391534        -0.380971        -1.144746
 H         1.161558        -1.980323         2.063762
 H         2.098124        -2.024284         0.639764
 H         4.273687        -1.063511         3.162038
