19
Iteration:  2025charge 0 multiplicity 1
 C         3.103962         1.722160         0.327900
 C         2.322005         0.883376         1.206601
 C         1.706446         0.808491         2.567560
 O         0.404659         0.343358         2.174213
 C         1.021051        -0.072951         0.915020
 C         0.148716        -0.160421        -0.303495
 C         1.881147        -1.440932         1.316263
 C         2.785331        -0.456565         2.008364
 O         4.122645        -0.413575         2.517798
 H         4.101540         2.133165         0.727330
 H         3.394517         1.162926        -0.539086
 H         2.365697         2.526063        -0.111748
 H         1.834633         1.386027         3.390223
 H        -0.712349        -0.785347        -0.072320
 H        -0.315305         0.837190        -0.497081
 H         0.660628        -0.510700        -1.197237
 H         1.368702        -2.132260         1.963530
 H         2.312101        -1.816424         0.343210
 H         4.295696        -1.138929         3.174636
