19
Iteration:  3772
 C         3.064350         1.767007         0.174815
 C         2.359106         0.827757         1.090099
 C         1.882207         0.781759         2.552182
 O         0.502260         0.553060         2.211059
 C         1.055910        -0.035632         0.945172
 C         0.141044        -0.250964        -0.244515
 C         1.716316        -1.389813         1.368973
 C         2.752085        -0.389419         2.027789
 O         4.056273        -0.639621         2.555131
 H         2.479590         2.677282         0.247875
 H         4.097124         2.004842         0.455519
 H         3.030166         1.406996        -0.917652
 H         2.318755         1.359265         3.299699
 H        -0.513135        -1.226282         0.043021
 H        -0.662907         0.608142        -0.566370
 H         0.669074        -0.477080        -1.192645
 H         1.243872        -2.063028         2.127468
 H         2.109425        -1.881554         0.463101
 H         4.010069        -0.815565         3.517943
