19
Iteration:   998charge 0 multiplicity 1
 C         2.887883         2.046633         0.560495
 C         2.366271         0.827659         1.228546
 C         1.687067         0.667967         2.585821
 O         0.421503         0.287647         2.089400
 C         1.191304        -0.098800         0.765324
 C         0.072133        -0.178719        -0.252809
 C         1.977579        -1.350821         1.098828
 C         2.821261        -0.332814         2.024069
 O         4.086504        -0.627530         2.635020
 H         3.768968         2.330757         1.199015
 H         3.394415         1.777216        -0.451946
 H         2.269927         2.929517         0.514500
 H         2.003610         1.042134         3.625116
 H        -0.724823        -0.740397         0.110510
 H        -0.345396         0.813073        -0.364452
 H         0.334632        -0.586149        -1.240738
 H         1.535930        -2.271201         1.471686
 H         2.476316        -1.677314         0.225176
 H         4.483425        -1.225769         1.911054
