19
Iteration:  2277charge 0 multiplicity 1
 C         3.196586         1.738538         0.376614
 C         2.383325         0.800225         1.115466
 C         1.682745         0.775462         2.516720
 O         0.439530         0.361981         2.136958
 C         1.045196        -0.159966         0.853845
 C        -0.018062        -0.213809        -0.198032
 C         1.927063        -1.348979         1.297501
 C         2.790586        -0.264486         2.035439
 O         4.039092        -0.577106         2.541208
 H         4.089126         2.161282         0.891675
 H         3.715011         1.377021        -0.510367
 H         2.430615         2.609227         0.091013
 H         2.002971         1.567718         3.196098
 H        -0.906174        -0.758316         0.225750
 H        -0.298893         0.882606        -0.416954
 H         0.238054        -0.684542        -1.199672
 H         1.548957        -2.256160         1.931795
 H         2.680399        -1.529785         0.425948
 H         4.116415         0.070587         3.250429
