19
Iteration:  4076
 C         3.219870         1.641893         0.209487
 C         2.357225         0.753886         1.062159
 C         1.874549         0.817373         2.605422
 O         0.438730         0.486552         2.201576
 C         0.953187        -0.171466         0.900908
 C        -0.030697        -0.025661        -0.121648
 C         1.783681        -1.332401         1.387405
 C         2.791799        -0.396146         2.009635
 O         4.124287        -0.609520         2.407897
 H         4.243088         1.324225         0.225676
 H         2.755848         1.711572        -0.751671
 H         3.305504         2.745948         0.631028
 H         1.985207         1.521653         3.439316
 H        -0.936504        -0.794345         0.069896
 H        -0.385635         1.053796        -0.261655
 H         0.429200        -0.366422        -1.172940
 H         1.234937        -1.795312         2.231641
 H         2.138696        -1.990543         0.586816
 H         4.195550        -0.962971         3.312894
