19
Iteration:  2701charge 0 multiplicity 1
 C         3.197624         1.775915         0.370906
 C         2.361773         0.827482         1.159260
 C         1.806468         0.825490         2.455664
 O         0.455742         0.361431         2.158996
 C         1.040922        -0.088791         0.907349
 C         0.050286        -0.191356        -0.160631
 C         1.836518        -1.360591         1.320726
 C         2.685197        -0.343253         2.021804
 O         4.038176        -0.568659         2.417836
 H         4.184967         1.887133         0.949487
 H         3.474583         1.303197        -0.527189
 H         2.855203         2.768820         0.169958
 H         1.895284         1.558689         3.282595
 H        -0.565998        -1.014745         0.144324
 H        -0.611357         0.647437        -0.222542
 H         0.584151        -0.460586        -1.084869
 H         1.295663        -2.214973         1.960528
 H         2.546869        -1.785847         0.526079
 H         4.055728        -0.779838         3.372058
