19
Iteration:   437
 C         3.005876         2.018011         0.677081
 C         2.403584         0.790728         1.184236
 C         1.703967         0.752982         2.563136
 O         0.404827         0.325811         2.081093
 C         1.094719        -0.120252         0.842042
 C         0.114251        -0.156144        -0.276742
 C         1.899604        -1.363575         1.324803
 C         2.808480        -0.430786         1.995192
 O         4.108040        -0.644791         2.408043
 H         3.697923         2.437334         1.386841
 H         3.645458         2.081430        -0.318886
 H         2.322961         2.775223         0.508826
 H         1.507650         1.402183         3.360230
 H        -0.667303        -0.994874        -0.157714
 H        -0.559676         0.676422        -0.267008
 H         0.616684        -0.169917        -1.204395
 H         1.366645        -2.160809         1.859366
 H         2.418938        -1.788135         0.384777
 H         4.449037        -1.124647         1.614067
