19
Iteration:  2700
 C         3.198184         1.763595         0.379287
 C         2.363620         0.830688         1.158894
 C         1.803425         0.823531         2.465388
 O         0.462198         0.366310         2.154049
 C         1.034311        -0.082941         0.908489
 C         0.050847        -0.195356        -0.162587
 C         1.842065        -1.360909         1.314719
 C         2.675639        -0.347376         2.020421
 O         4.042201        -0.564984         2.416312
 H         4.194980         1.883287         0.966589
 H         3.486131         1.327513        -0.548449
 H         2.843055         2.805252         0.137679
 H         1.894477         1.541166         3.261975
 H        -0.594779        -1.035108         0.165098
 H        -0.648196         0.636163        -0.204553
 H         0.596664        -0.474428        -1.097616
 H         1.308495        -2.166476         1.980282
 H         2.544400        -1.788007         0.519128
 H         4.050968        -0.793065         3.379407
