19
Iteration:  1355charge 0 multiplicity 1
 C         2.963703         1.951406         0.329024
 C         2.243921         0.854823         1.101110
 C         1.814232         0.718617         2.534366
 O         0.437845         0.277635         2.191047
 C         1.003164        -0.136592         0.863907
 C         0.190360        -0.085216        -0.315211
 C         1.959827        -1.409655         1.374009
 C         2.845620        -0.320565         2.060873
 O         3.998849        -0.661965         2.618519
 H         3.906480         2.229967         0.756692
 H         3.393198         1.504459        -0.512581
 H         2.380979         2.889932        -0.004535
 H         1.825955         1.488078         3.301300
 H        -0.247703        -1.044616        -0.503194
 H        -0.513508         0.755336        -0.112450
 H         0.809607         0.187918        -1.194177
 H         1.599966        -2.069706         2.245213
 H         2.374124        -1.949400         0.547282
 H         4.593388        -0.795832         1.865951
