19
Iteration:  1546
 C         3.035188         1.867671         0.227172
 C         2.214838         0.826763         1.070332
 C         1.783304         0.771888         2.488917
 O         0.443442         0.309179         2.233659
 C         1.073912        -0.152360         0.967527
 C         0.166795        -0.087001        -0.301176
 C         1.888300        -1.382393         1.382688
 C         2.786563        -0.337328         2.057677
 O         4.053896        -0.570418         2.640136
 H         3.913528         2.124714         0.884352
 H         3.375195         1.517595        -0.740707
 H         2.461843         2.768017         0.003895
 H         2.109060         1.481626         3.266212
 H        -0.274583        -1.088650        -0.496317
 H        -0.569339         0.713336        -0.407340
 H         0.819745        -0.067470        -1.224696
 H         1.398088        -2.059300         2.083408
 H         2.376022        -1.991112         0.525817
 H         4.407383        -1.375034         2.130016
