19
Iteration:  2830charge 0 multiplicity 1
 C         3.145038         1.826822         0.243543
 C         2.426834         0.803847         1.108176
 C         1.797482         0.790067         2.572519
 O         0.487005         0.421589         2.223072
 C         1.040645        -0.153109         0.883096
 C         0.049461        -0.185504        -0.226866
 C         1.789328        -1.354518         1.343894
 C         2.766548        -0.362925         2.049349
 O         4.018997        -0.576980         2.467847
 H         3.923698         2.144702         1.024050
 H         3.727854         1.296142        -0.494689
 H         2.524384         2.744653        -0.161433
 H         1.961262         1.427105         3.508625
 H        -0.590092        -1.103527         0.044388
 H        -0.543806         0.754049        -0.405459
 H         0.517177        -0.458842        -1.267017
 H         1.105290        -2.092108         1.784582
 H         2.335303        -1.811878         0.529101
 H         4.126703        -0.857990         3.405229
