19
Iteration:  1345
 C         2.942122         1.875231         0.322751
 C         2.297196         0.840000         1.133548
 C         1.758063         0.764970         2.505744
 O         0.432716         0.292218         2.152253
 C         1.090465        -0.094732         0.931115
 C         0.156349        -0.061785        -0.311154
 C         2.025549        -1.359396         1.372605
 C         2.764486        -0.378518         2.033606
 O         4.049142        -0.629546         2.611615
 H         3.723582         2.308065         0.970589
 H         3.257025         1.483929        -0.609230
 H         2.217452         2.782075         0.088594
 H         1.928183         1.374677         3.419189
 H        -0.323765        -1.045773        -0.439893
 H        -0.749916         0.587182        -0.199097
 H         0.707248         0.216321        -1.233827
 H         1.478954        -2.221079         1.935916
 H         2.570518        -1.827807         0.553812
 H         4.436584        -1.361886         2.150533
