19
Iteration:   911charge 0 multiplicity 1
 C         2.880845         1.930059         0.443631
 C         2.313660         0.820210         1.330928
 C         1.637371         0.547917         2.611676
 O         0.363187         0.225870         2.172907
 C         1.117719        -0.224052         0.826983
 C         0.218095         0.097333        -0.310574
 C         2.011611        -1.370946         1.092348
 C         2.783380        -0.412948         2.074778
 O         4.121456        -0.563483         2.549369
 H         3.694636         2.531062         0.911079
 H         3.299134         1.360257        -0.496562
 H         2.222920         2.675951         0.177359
 H         1.841240         1.353123         3.490275
 H        -0.394763        -0.761231        -0.359346
 H        -0.332516         0.986638        -0.057287
 H         0.818284         0.311802        -1.213156
 H         1.547804        -2.179218         1.652435
 H         2.639027        -1.579380         0.254291
 H         4.718507        -0.037029         1.965889
