19
Iteration:  3339charge 0 multiplicity 1
 C         3.053765         1.713187         0.170254
 C         2.398018         0.732979         1.145600
 C         1.739983         0.779666         2.485397
 O         0.402870         0.330499         2.133211
 C         1.129256        -0.140691         0.916222
 C         0.069152        -0.053192        -0.281983
 C         1.829993        -1.391731         1.458946
 C         2.807930        -0.297193         2.070333
 O         4.104699        -0.498476         2.587664
 H         4.228851         1.862714         0.431231
 H         3.050637         1.472783        -0.898672
 H         2.743121         2.756312         0.203897
 H         1.717190         1.508441         3.227987
 H        -0.830795        -0.539354        -0.029277
 H        -0.144738         1.022871        -0.451755
 H         0.396945        -0.617712        -1.157526
 H         1.281097        -2.142446         1.977063
 H         2.443595        -2.044648         0.769889
 H         4.024937        -0.778838         3.525602
