19
Iteration:  3182
 C         2.854143         1.893031         0.063833
 C         2.443620         0.767684         1.170171
 C         1.830085         0.860613         2.473460
 O         0.477292         0.455615         2.126174
 C         1.097782        -0.081592         0.982392
 C         0.206866        -0.168121        -0.222503
 C         1.904045        -1.367039         1.391549
 C         2.760316        -0.411068         2.102769
 O         4.028913        -0.744745         2.611744
 H         3.607733         2.443386         0.680441
 H         3.312091         1.482756        -0.879823
 H         2.027833         2.424007        -0.328765
 H         1.931831         1.465197         3.410493
 H        -0.576701        -0.871415        -0.319375
 H        -0.413514         0.750368        -0.216917
 H         0.796958        -0.280066        -1.072651
 H         1.202135        -1.958668         1.932332
 H         2.479026        -1.877266         0.653812
 H         3.745744        -0.948222         3.505263
