19
Iteration:  4005charge 0 multiplicity 1
 C         2.916604         1.673705         0.042137
 C         2.391963         0.844392         1.087420
 C         1.816851         0.804278         2.544281
 O         0.545061         0.474538         2.228346
 C         1.011356        -0.022701         0.969830
 C         0.047792         0.017632        -0.240865
 C         1.845268        -1.375309         1.378259
 C         2.808310        -0.379285         1.994699
 O         4.139460        -0.810432         2.646492
 H         3.415382         1.046158        -0.808319
 H         2.075209         2.357862        -0.305345
 H         3.615439         2.262019         0.478944
 H         2.204745         1.393838         3.373298
 H        -0.888208        -0.343667         0.087347
 H        -0.190524         1.040883        -0.601556
 H         0.388045        -0.601866        -1.066291
 H         1.302436        -1.986583         2.035264
 H         2.485539        -1.828251         0.617543
 H         3.957436        -0.792652         3.595855
