19
Iteration:  4979
 C         3.107490         1.760637         0.280278
 C         2.389598         0.710724         1.016530
 C         1.748694         0.836173         2.448372
 O         0.447391         0.447580         2.054283
 C         1.046099        -0.195155         0.910961
 C         0.028709        -0.263172        -0.186899
 C         1.881531        -1.428077         1.465062
 C         2.846083        -0.292509         2.049501
 O         4.058918        -0.459985         2.638961
 H         2.611196         2.018881        -0.669853
 H         3.174444         2.754135         0.850170
 H         4.132640         1.417230         0.050446
 H         1.882201         1.749999         3.012370
 H        -0.892139        -0.932583        -0.160046
 H        -0.475187         0.775172        -0.608698
 H         0.559886        -0.486278        -1.132364
 H         1.556633        -2.183440         2.176610
 H         2.220628        -2.026750         0.689321
 H         3.920949        -0.500810         3.602250
