19
Iteration:  4838
 C         2.991381         1.873718         0.167876
 C         2.492572         0.763021         1.045293
 C         1.821303         0.788067         2.428064
 O         0.494832         0.556702         2.137236
 C         0.971986        -0.106528         0.958458
 C         0.115789        -0.293659        -0.247414
 C         1.868189        -1.423563         1.471102
 C         2.823517        -0.358971         1.977048
 O         3.994528        -0.630939         2.668276
 H         4.069922         1.769408         0.065810
 H         2.444124         1.899108        -0.851377
 H         2.766488         2.772299         0.795488
 H         1.946827         1.370482         3.344102
 H        -0.456424        -1.161334        -0.095217
 H        -0.556034         0.625705        -0.394385
 H         0.641928        -0.379564        -1.134511
 H         1.492087        -2.241356         2.214428
 H         2.203982        -2.088631         0.662177
 H         3.972040        -0.351141         3.606747
