19
Iteration:  2523charge 0 multiplicity 1
 C         2.950781         1.794129         0.300159
 C         2.444399         0.787442         1.175554
 C         1.844051         0.820524         2.503450
 O         0.520135         0.452366         2.079721
 C         1.100794        -0.139285         0.889509
 C         0.046704        -0.175689        -0.277139
 C         1.879194        -1.345659         1.431671
 C         2.773571        -0.383653         2.034655
 O         4.006006        -0.588390         2.570631
 H         3.890254         2.135780         0.640828
 H         3.116122         1.596063        -0.703713
 H         2.346415         2.732061         0.334250
 H         2.256420         1.308780         3.401258
 H        -0.754528        -0.929519        -0.166503
 H        -0.353692         0.851137        -0.216328
 H         0.458898        -0.294740        -1.253050
 H         1.271354        -2.230556         1.873655
 H         2.320987        -1.954252         0.559643
 H         3.928005        -1.397999         3.138569
