19
Iteration:  1603
 C         3.063858         1.832718         0.247247
 C         2.364325         0.817255         1.105831
 C         1.772645         0.695213         2.549914
 O         0.435107         0.362877         2.181356
 C         1.077791        -0.182569         0.900250
 C         0.053824        -0.143040        -0.256971
 C         1.942947        -1.346577         1.321802
 C         2.789631        -0.308992         1.984048
 O         4.023386        -0.603952         2.642080
 H         3.985455         2.087122         0.724589
 H         3.319452         1.262742        -0.721403
 H         2.504309         2.669876        -0.026457
 H         2.074875         1.436449         3.409536
 H        -0.811883        -0.754533        -0.004454
 H        -0.362601         0.901462        -0.376808
 H         0.384148        -0.535372        -1.259823
 H         1.396425        -2.029997         1.988909
 H         2.406764        -1.720694         0.374160
 H         4.352881         0.093323         3.204509
