19
Iteration:  1858
 C         2.974641         1.854435         0.311718
 C         2.347564         0.734779         1.160827
 C         1.757426         0.746575         2.550930
 O         0.413109         0.439753         2.174104
 C         1.086959        -0.055951         0.964859
 C         0.129986        -0.163292        -0.309625
 C         1.875765        -1.462642         1.251504
 C         2.786499        -0.477361         2.036995
 O         4.126936        -0.520639         2.529288
 H         3.680193         2.095030         1.142014
 H         3.682989         1.653652        -0.563500
 H         2.368387         2.695715        -0.025551
 H         2.036366         1.271776         3.594828
 H        -0.895862        -0.517633        -0.018195
 H        -0.036449         0.718622        -0.847345
 H         0.459377        -1.043569        -0.871084
 H         1.440550        -2.294160         1.804303
 H         2.476269        -1.661117         0.392800
 H         4.008800         0.183201         3.238608
