19
Iteration:   885
 C         2.921447         1.892331         0.467717
 C         2.304026         0.792169         1.275520
 C         1.723208         0.584465         2.649072
 O         0.471063         0.136135         2.142249
 C         1.040468        -0.100591         0.865053
 C         0.162135         0.065457        -0.340741
 C         2.001699        -1.322436         1.104477
 C         2.775893        -0.342701         2.019800
 O         4.072529        -0.496751         2.575152
 H         3.646837         2.393676         1.109727
 H         3.379080         1.591099        -0.467796
 H         2.176418         2.779471         0.424915
 H         1.707694         0.891882         3.649795
 H        -0.603592        -0.737749        -0.220042
 H        -0.389025         1.012053        -0.468521
 H         0.802913        -0.210863        -1.186466
 H         1.608136        -2.207025         1.637083
 H         2.590935        -1.529694         0.209237
 H         4.601965        -1.114004         2.058463
