19
Iteration:  3179
 C         2.861078         1.892577         0.070142
 C         2.416640         0.755702         1.161039
 C         1.817151         0.879796         2.480229
 O         0.464437         0.454483         2.129408
 C         1.109730        -0.077391         0.987954
 C         0.219858        -0.137790        -0.214605
 C         1.912887        -1.372330         1.397319
 C         2.771460        -0.400467         2.092214
 O         4.021028        -0.754332         2.608203
 H         3.608303         2.367045         0.593078
 H         3.293577         1.405015        -0.856199
 H         1.953847         2.516651        -0.355028
 H         1.931568         1.405123         3.344877
 H        -0.606775        -0.965213        -0.303677
 H        -0.388269         0.797975        -0.231490
 H         0.856291        -0.352019        -1.171596
 H         1.292939        -2.064731         1.977531
 H         2.514103        -1.873986         0.668345
 H         3.844411        -0.990819         3.553465
