19
Iteration:  1064
 C         2.919775         1.970338         0.517466
 C         2.382529         0.809082         1.229610
 C         1.711320         0.621104         2.627259
 O         0.401989         0.214848         2.114822
 C         1.065848        -0.136403         0.865540
 C         0.105702        -0.023946        -0.303055
 C         1.952069        -1.376310         1.159715
 C         2.797377        -0.414813         2.046890
 O         4.141250        -0.531050         2.457535
 H         3.854052         2.228404         1.127821
 H         3.466491         1.541033        -0.442815
 H         2.304215         2.800429         0.303042
 H         1.677125         1.315281         3.429278
 H        -0.784690        -0.565222        -0.218964
 H        -0.091915         1.010282        -0.562414
 H         0.773573        -0.458287        -1.040949
 H         1.474465        -2.265974         1.581189
 H         2.480065        -1.720338         0.276489
 H         4.305130        -0.296096         3.374360
