19
Iteration:  1434
 C         3.098739         1.888149         0.323227
 C         2.321397         0.796231         1.191291
 C         1.753142         0.760159         2.495199
 O         0.455545         0.194954         2.179464
 C         1.047294        -0.101412         0.839116
 C         0.037289        -0.125031        -0.239246
 C         1.967996        -1.359018         1.290417
 C         2.837652        -0.302596         2.018343
 O         4.023537        -0.527449         2.627711
 H         3.966518         2.350801         0.850225
 H         3.310116         1.544178        -0.618557
 H         2.458898         2.813506         0.084313
 H         1.785924         1.622137         3.168086
 H        -0.970152        -0.261792         0.267349
 H        -0.002075         0.841186        -0.756359
 H         0.320574        -0.895910        -0.946367
 H         1.392615        -2.150656         1.863040
 H         2.547129        -1.847512         0.444219
 H         4.131491        -1.447942         2.425766
