19
Iteration:  4996charge 0 multiplicity 1
 C         3.075526         1.865068         0.258198
 C         2.394442         0.701317         0.993595
 C         1.860027         0.881647         2.365771
 O         0.516276         0.450651         2.115058
 C         1.044914        -0.192127         0.811390
 C         0.077017        -0.340331        -0.251659
 C         1.770227        -1.382593         1.475567
 C         2.729976        -0.400285         2.169621
 O         4.054750        -0.443368         2.673176
 H         2.355505         2.207800        -0.542901
 H         3.344662         2.641058         0.946130
 H         3.999369         1.656455        -0.283603
 H         2.194443         1.477092         3.240815
 H        -0.590187        -1.095288         0.200978
 H        -0.461274         0.486198        -0.278003
 H         0.403811        -0.555013        -1.290635
 H         0.914560        -1.986868         1.910304
 H         2.538599        -1.907992         0.705611
 H         4.109321        -0.698988         3.616024
