19
Iteration:  3212charge 0 multiplicity 1
 C         2.926300         1.820837         0.245229
 C         2.382269         0.745937         1.035386
 C         1.934992         0.775948         2.468663
 O         0.527591         0.473025         2.183641
 C         1.035167        -0.033433         0.889071
 C         0.061954        -0.178070        -0.307460
 C         1.858661        -1.395380         1.409901
 C         2.811163        -0.455221         2.007056
 O         4.038287        -0.581653         2.681216
 H         3.446834         2.464743         0.921872
 H         3.818285         1.457965        -0.358659
 H         2.239026         2.561936        -0.411080
 H         2.256622         1.359259         3.286717
 H        -0.519196        -1.151799         0.014081
 H        -0.718648         0.646997        -0.434510
 H         0.540328        -0.218226        -1.391369
 H         1.171258        -1.950632         2.088293
 H         2.344895        -2.005813         0.652709
 H         3.615487        -0.862707         3.529752
