19
Iteration:  3488
 C         3.221734         1.555819         0.244901
 C         2.338441         0.771826         1.136557
 C         1.783162         0.675620         2.576749
 O         0.479975         0.346974         2.172332
 C         1.031036        -0.083822         0.974427
 C         0.112512        -0.087607        -0.256914
 C         1.787720        -1.433809         1.333046
 C         2.715717        -0.355018         2.024327
 O         4.025746        -0.220921         2.495366
 H         4.158341         1.725305         0.825290
 H         3.556176         1.073433        -0.695367
 H         2.743170         2.515341        -0.107288
 H         2.053851         1.236639         3.442640
 H        -0.822363        -0.415217         0.140609
 H        -0.155685         0.825510        -0.748384
 H         0.334500        -0.853743        -0.910892
 H         1.189805        -2.131758         1.968748
 H         2.346195        -1.787406         0.405514
 H         3.986322        -0.780215         3.307516
