19
Iteration:  2396
 C         2.945275         1.766454         0.115147
 C         2.340043         0.807635         1.123164
 C         1.873033         0.727828         2.527869
 O         0.451525         0.324572         2.233002
 C         1.076602        -0.168124         0.870566
 C         0.192604        -0.066141        -0.223612
 C         1.805585        -1.378105         1.326653
 C         2.803748        -0.378277         2.017066
 O         4.032977        -0.473483         2.678157
 H         3.852937         2.247632         0.662669
 H         3.564931         1.297308        -0.704217
 H         2.315576         2.527118        -0.155502
 H         1.963859         1.422241         3.377484
 H        -0.851719        -0.470291        -0.205422
 H         0.042190         1.071868        -0.331566
 H         0.818170        -0.330074        -1.150346
 H         1.323443        -2.021515         2.055078
 H         2.300087        -1.815915         0.405851
 H         3.842721        -1.352480         3.101499
