19
Iteration:   346charge 0 multiplicity 1
 C         2.880448         1.909989         0.356791
 C         2.310279         0.838408         1.180995
 C         1.749506         0.587694         2.527992
 O         0.442903         0.017723         2.166110
 C         1.127891        -0.112792         0.803792
 C         0.060157         0.309411        -0.241299
 C         2.085466        -1.413997         1.176275
 C         2.857011        -0.333141         2.041759
 O         4.022271        -0.581472         2.695293
 H         3.885871         2.170496         0.817771
 H         3.008956         1.346959        -0.578223
 H         2.146528         2.815850         0.124280
 H         1.610313         1.131667         3.491608
 H        -0.782955        -0.268128         0.110252
 H        -0.318772         1.366833        -0.090338
 H         0.387007         0.120478        -1.336304
 H         1.770091        -2.314828         1.723177
 H         2.660734        -1.864080         0.328630
 H         4.707663        -0.996311         2.188551
