19
Iteration:  1688
 C         3.004705         1.769769         0.312630
 C         2.373447         0.700255         1.136196
 C         1.773203         0.782164         2.537789
 O         0.439330         0.428840         2.204428
 C         1.062822        -0.162589         0.885999
 C         0.171837        -0.164600        -0.292816
 C         1.854024        -1.343865         1.360149
 C         2.704380        -0.374595         2.042187
 O         4.118009        -0.440172         2.510945
 H         3.775405         2.330400         0.928739
 H         3.508166         1.457348        -0.630743
 H         2.176996         2.504338        -0.012347
 H         2.193922         1.260517         3.535183
 H        -0.666539        -0.764270         0.046540
 H        -0.082466         0.878232        -0.534580
 H         0.559478        -0.764125        -1.145028
 H         1.123680        -2.039359         1.760586
 H         2.336576        -1.916085         0.503299
 H         4.192716        -1.306974         3.027198
