19
Iteration:  3061
 C         3.318806         1.685866         0.349909
 C         2.291302         0.863212         1.101528
 C         1.762952         0.852204         2.504618
 O         0.474289         0.345148         2.139501
 C         1.029791        -0.059010         0.902848
 C         0.016934        -0.256706        -0.132602
 C         1.875532        -1.325185         1.347548
 C         2.714866        -0.324810         1.977272
 O         3.994028        -0.504832         2.455969
 H         4.148601         1.980158         1.074712
 H         3.870034         0.956345        -0.487381
 H         2.862529         2.698988         0.078676
 H         1.831558         1.322060         3.432218
 H        -0.684849        -1.066929         0.123970
 H        -0.516576         0.730964        -0.277587
 H         0.382260        -0.513393        -1.123013
 H         1.318028        -2.210727         1.876351
 H         2.522861        -1.766801         0.490421
 H         4.012940        -0.864951         3.371683
