19
Iteration:  4487charge 0 multiplicity 1
 C         3.248240         1.636366         0.265287
 C         2.305951         0.796558         1.108631
 C         1.912950         0.767281         2.525583
 O         0.457081         0.472199         2.242079
 C         0.953277        -0.024603         0.918370
 C        -0.042559        -0.202159        -0.223642
 C         1.759209        -1.325767         1.332577
 C         2.840737        -0.339529         2.006690
 O         4.089654        -0.571036         2.494276
 H         3.015284         1.391657        -0.816424
 H         2.965880         2.762926         0.352079
 H         4.289284         1.639653         0.508100
 H         2.211650         1.413968         3.364251
 H        -0.772204        -1.043713        -0.035538
 H        -0.789479         0.661228        -0.368823
 H         0.425662        -0.438444        -1.270033
 H         1.367182        -2.056127         1.993501
 H         2.261566        -1.830829         0.547866
 H         3.913573        -0.682064         3.450372
