19
Iteration:  4092charge 0 multiplicity 1
 C         3.260725         1.639267         0.287900
 C         2.352519         0.786391         1.147767
 C         1.819529         0.818790         2.481537
 O         0.531199         0.481510         2.220650
 C         1.012990        -0.005269         0.971087
 C        -0.009523        -0.130455        -0.154002
 C         1.754920        -1.385143         1.457313
 C         2.713048        -0.351106         2.049983
 O         4.034482        -0.610320         2.266446
 H         4.323247         1.248541         0.353668
 H         3.062718         1.601029        -0.826333
 H         3.218667         2.635113         0.556081
 H         2.195509         1.358943         3.361363
 H        -0.705606        -0.837164         0.079666
 H        -0.575624         0.770715        -0.188455
 H         0.376504        -0.369158        -1.069872
 H         1.192409        -2.251489         1.964511
 H         2.347831        -1.796493         0.565467
 H         4.029021        -0.832543         3.214631
