19
Iteration:  4892
 C         3.152941         1.593707         0.141298
 C         2.315468         0.779990         1.114184
 C         1.751036         0.787582         2.497478
 O         0.351846         0.383134         2.107419
 C         0.975930        -0.186580         0.987545
 C         0.151813        -0.080179        -0.218652
 C         1.976906        -1.402419         1.451856
 C         2.744399        -0.276800         2.033512
 O         4.053292        -0.417877         2.580505
 H         3.814577         1.016578        -0.514566
 H         2.367395         2.010092        -0.607022
 H         3.710303         2.430487         0.640306
 H         1.938002         1.382278         3.386993
 H        -0.759821        -0.699305        -0.141360
 H        -0.161410         1.055236        -0.238355
 H         0.802872        -0.391027        -1.020978
 H         1.694223        -2.260079         2.122035
 H         2.467652        -1.763337         0.554476
 H         4.181605        -0.873683         3.434070
