19
Iteration:  4380
 C         3.051650         1.624752         0.087572
 C         2.336827         0.758600         1.121698
 C         1.870907         0.781508         2.540692
 O         0.494263         0.454890         2.284917
 C         1.003965        -0.059364         1.027684
 C        -0.001415         0.040768        -0.248724
 C         1.860228        -1.433508         1.375284
 C         2.850820        -0.405198         1.963283
 O         4.070961        -0.595969         2.543879
 H         4.065075         1.354411        -0.191040
 H         2.493186         1.819646        -0.792648
 H         3.219452         2.668382         0.532470
 H         2.283366         1.244441         3.454014
 H        -0.986986        -0.210081        -0.079355
 H         0.051577         1.076629        -0.596759
 H         0.335742        -0.524653        -1.098758
 H         1.252130        -2.206280         1.973580
 H         2.159010        -1.861000         0.399195
 H         3.779857        -0.865715         3.443867
