19
Iteration:  2688charge 0 multiplicity 1
 C         3.282245         1.691509         0.413379
 C         2.301362         0.812677         1.108665
 C         1.766853         0.755197         2.626315
 O         0.494529         0.469206         2.122916
 C         1.003836        -0.038806         0.872815
 C        -0.041188        -0.293167        -0.189973
 C         1.889573        -1.312231         1.271081
 C         2.760229        -0.345978         2.031361
 O         4.054467        -0.504433         2.420492
 H         4.177749         1.935640         1.085295
 H         3.628206         1.340969        -0.551180
 H         2.646235         2.659403         0.268503
 H         1.958148         1.340095         3.469741
 H        -0.615831        -1.233000         0.075227
 H        -0.699721         0.589157        -0.352667
 H         0.371263        -0.476492        -1.223779
 H         1.280104        -1.985251         1.985515
 H         2.228063        -1.911186         0.372171
 H         4.055802        -0.986724         3.274292
