19
Iteration:  1386charge 0 multiplicity 1
 C         2.975466         1.886000         0.392076
 C         2.361352         0.718112         1.164453
 C         1.818554         0.711253         2.517908
 O         0.457615         0.309033         2.209119
 C         1.069156        -0.035902         0.918133
 C         0.163882        -0.125861        -0.335995
 C         1.859803        -1.400477         1.286135
 C         2.774048        -0.379956         2.016431
 O         4.050260        -0.575942         2.541739
 H         3.834960         2.267311         0.881193
 H         3.183119         1.563798        -0.665385
 H         2.312892         2.739463         0.232476
 H         1.965202         1.270797         3.428274
 H        -0.533948        -0.890194        -0.142350
 H        -0.410744         0.761093        -0.626654
 H         0.796851        -0.405579        -1.207829
 H         1.437868        -2.091447         2.025885
 H         2.247579        -1.894519         0.430713
 H         4.141755         0.390586         2.833244
