19
Iteration:  3716charge 0 multiplicity 1
 C         3.269447         1.587326         0.229920
 C         2.378561         0.770389         1.100015
 C         1.716791         0.795428         2.477558
 O         0.448190         0.316838         2.121269
 C         1.117992        -0.150559         0.880858
 C        -0.084896        -0.079731        -0.130515
 C         1.888340        -1.344548         1.402496
 C         2.703278        -0.300653         2.111190
 O         4.040976        -0.421732         2.473510
 H         3.405299         2.557749         0.607426
 H         4.295353         1.201664         0.252214
 H         3.075597         1.677073        -0.921521
 H         2.090640         1.507628         3.250756
 H        -1.169789        -0.568071         0.201626
 H        -0.232980         1.104819        -0.037260
 H         0.334719        -0.397318        -1.089566
 H         1.321664        -2.104908         2.001188
 H         2.341286        -1.957774         0.674218
 H         4.200932        -0.743075         3.388834
