19
Iteration:  2556charge 0 multiplicity 1
 C         2.850510         1.879052         0.064388
 C         2.413515         0.792837         1.136463
 C         1.856948         0.763183         2.466491
 O         0.465819         0.348645         2.225863
 C         1.052291        -0.119870         0.960795
 C         0.208844        -0.064908        -0.290174
 C         1.875537        -1.330719         1.402802
 C         2.824147        -0.386466         2.067664
 O         4.039416        -0.717127         2.649333
 H         3.739493         2.269223         0.469187
 H         2.977636         1.497530        -0.897347
 H         2.033701         2.642847         0.026892
 H         2.184484         1.390941         3.307026
 H        -0.791922        -0.549958        -0.363255
 H         0.099351         1.033922        -0.459239
 H         0.900217        -0.383944        -1.049001
 H         1.105569        -1.917042         2.055315
 H         2.307370        -1.574232         0.366647
 H         3.752144        -0.991542         3.555573
