19
Iteration:  3506
 C         3.254435         1.538280         0.276051
 C         2.276201         0.815702         1.156933
 C         1.772600         0.778987         2.566439
 O         0.385956         0.348886         2.253366
 C         1.030357        -0.131851         0.828244
 C         0.035520        -0.150878        -0.271779
 C         1.878852        -1.338498         1.297598
 C         2.745425        -0.341148         2.073108
 O         4.126341        -0.328682         2.506593
 H         4.230908         1.407858         0.613961
 H         3.084316         0.979141        -0.681959
 H         2.935005         2.639108        -0.017453
 H         1.809110         1.355872         3.454893
 H        -1.101324        -0.375169        -0.051886
 H         0.092574         0.878092        -0.567348
 H         0.407062        -0.783214        -1.165791
 H         1.279370        -2.137543         1.879829
 H         2.250585        -1.901882         0.500738
 H         4.261743        -0.494509         3.467940
