19
Iteration:  4427charge 0 multiplicity 1
 C         2.896246         1.776825         0.187189
 C         2.410119         0.708332         1.035451
 C         1.899102         0.798547         2.480549
 O         0.531800         0.537298         2.176944
 C         1.055079        -0.127121         0.934923
 C         0.012938         0.027173        -0.261885
 C         1.726846        -1.371482         1.454152
 C         2.844641        -0.378020         2.045567
 O         4.172421        -0.763228         2.597947
 H         3.710488         1.604122        -0.531240
 H         2.001862         1.986030        -0.406264
 H         3.248841         2.802049         0.672322
 H         1.967628         1.433373         3.363035
 H        -0.907459        -0.627499        -0.150262
 H        -0.216455         1.021894        -0.646667
 H         0.474583        -0.453667        -1.115176
 H         1.274241        -1.926934         2.405174
 H         2.392256        -2.112111         0.881204
 H         4.025462        -1.394315         3.327313
