19
Iteration:  1712
 C         3.057275         1.839587         0.269000
 C         2.252024         0.839008         1.085817
 C         1.776221         0.816353         2.534192
 O         0.470293         0.280075         2.228457
 C         0.996313        -0.162760         0.935567
 C         0.167873        -0.111768        -0.305409
 C         1.908490        -1.385246         1.456485
 C         2.738399        -0.301395         1.969915
 O         4.095241        -0.620380         2.521781
 H         3.904165         2.206700         0.813584
 H         3.468390         1.290656        -0.693952
 H         2.475311         2.649890        -0.120613
 H         1.853458         1.809983         2.961565
 H        -0.574814        -0.867721        -0.330322
 H        -0.216802         0.945290        -0.298318
 H         0.795176        -0.315440        -1.172219
 H         1.423174        -2.165843         2.082982
 H         2.452755        -1.882711         0.644861
 H         3.976900        -0.708299         3.473610
