19
Iteration:  1294
 C         3.011252         1.908454         0.308570
 C         2.314879         0.825573         1.078887
 C         1.819236         0.616434         2.563082
 O         0.479787         0.230657         2.244321
 C         1.049237        -0.107915         0.890658
 C         0.109245        -0.048634        -0.271321
 C         1.992159        -1.361103         1.216737
 C         2.796784        -0.312802         1.887731
 O         3.939737        -0.604029         2.699404
 H         3.769158         2.351227         1.030628
 H         3.473747         1.395824        -0.588309
 H         2.355790         2.656302        -0.066420
 H         1.887203         1.063529         3.643565
 H        -0.620624        -0.929396        -0.222917
 H        -0.538731         0.856290        -0.229848
 H         0.606939        -0.061516        -1.228778
 H         1.604825        -2.100335         1.907713
 H         2.491252        -1.774739         0.297761
 H         4.507935         0.194292         2.978381
