19
Iteration:  4382charge 0 multiplicity 1
 C         3.046393         1.625073         0.084491
 C         2.344757         0.745629         1.125804
 C         1.868608         0.779354         2.533397
 O         0.506284         0.457734         2.277328
 C         0.984486        -0.062421         1.011442
 C         0.030443         0.046474        -0.216545
 C         1.857766        -1.441729         1.381173
 C         2.840075        -0.392514         1.962061
 O         4.060629        -0.592226         2.542138
 H         4.051479         1.465667        -0.249063
 H         2.445648         1.820308        -0.755971
 H         3.208702         2.693965         0.561954
 H         2.337045         1.209326         3.424203
 H        -0.985491        -0.234876        -0.085161
 H         0.110752         1.085774        -0.619321
 H         0.344264        -0.517211        -1.030237
 H         1.217580        -2.245070         1.973169
 H         2.184611        -1.908006         0.395475
 H         3.716434        -0.886976         3.406794
