19
Iteration:   351charge 0 multiplicity 1
 C         2.877362         1.912066         0.362673
 C         2.323409         0.807298         1.182005
 C         1.776585         0.570811         2.575566
 O         0.421696         0.064062         2.113183
 C         1.100561        -0.100417         0.786922
 C         0.025582         0.283992        -0.222981
 C         2.127300        -1.391265         1.166305
 C         2.836136        -0.330609         2.015092
 O         4.046219        -0.585790         2.737470
 H         3.810622         2.220069         0.765549
 H         3.017907         1.368850        -0.607610
 H         2.212956         2.690626         0.238530
 H         1.764041         1.066418         3.545564
 H        -0.838570        -0.398917         0.054592
 H        -0.227436         1.318818        -0.095441
 H         0.343147         0.058855        -1.200066
 H         1.709578        -2.262870         1.715517
 H         2.699971        -1.798337         0.295489
 H         4.585262        -1.020075         2.008212
