19
Iteration:   568
 C         2.896201         1.963353         0.417872
 C         2.364207         0.863312         1.130256
 C         1.853941         0.628729         2.550584
 O         0.472190         0.144081         2.276829
 C         1.097708        -0.100899         0.862161
 C         0.182411         0.040678        -0.351620
 C         1.924496        -1.376589         1.252544
 C         2.788767        -0.378695         1.950000
 O         3.938688        -0.553373         2.618598
 H         3.753116         2.350663         0.969365
 H         3.372406         1.581937        -0.549343
 H         2.166084         2.770914         0.212881
 H         2.091048         1.147767         3.528250
 H        -0.651750        -0.720580        -0.456133
 H        -0.099465         1.088227        -0.378763
 H         0.796849        -0.165501        -1.198769
 H         1.400232        -2.016078         1.925190
 H         2.284174        -1.945192         0.349490
 H         4.384020        -1.298992         2.248358
