19
Iteration:   497charge 0 multiplicity 1
 C         3.041624         1.959678         0.282153
 C         2.286462         0.953289         1.159007
 C         1.818976         0.612556         2.558031
 O         0.474609         0.069367         2.234373
 C         1.054005        -0.111329         0.961221
 C         0.132030         0.015572        -0.216253
 C         1.982948        -1.292052         1.119404
 C         2.766583        -0.393257         1.909179
 O         3.897086        -0.620492         2.695623
 H         3.986864         2.212137         0.847835
 H         3.386949         1.405846        -0.524539
 H         2.463207         2.896902         0.012373
 H         2.092383         1.098206         3.551996
 H        -0.750185        -0.566804        -0.221228
 H        -0.048977         1.121730        -0.234962
 H         0.629125        -0.281469        -1.204993
 H         1.392515        -2.031939         1.733979
 H         2.522731        -1.644759         0.262092
 H         4.743219        -0.411381         2.344625
