19
Iteration:  1368
 C         3.024400         1.947574         0.306583
 C         2.284599         0.859208         1.099545
 C         1.783482         0.706979         2.544167
 O         0.481811         0.256416         2.237174
 C         1.073838        -0.212698         0.929563
 C         0.185922        -0.121706        -0.355599
 C         1.820454        -1.361442         1.378605
 C         2.761028        -0.294760         1.961969
 O         4.044274        -0.652108         2.621402
 H         3.839463         2.318129         0.976832
 H         3.280048         1.644376        -0.680978
 H         2.323300         2.885959         0.195445
 H         2.098707         1.347224         3.448247
 H        -0.536471        -0.947129        -0.642467
 H        -0.473352         0.784150        -0.349171
 H         0.907002         0.029490        -1.169616
 H         1.159793        -2.084074         1.987685
 H         2.361109        -1.925406         0.599455
 H         4.781889        -0.084420         2.238037
