19
Iteration:  4353
 C         3.235676         1.527103         0.190927
 C         2.307369         0.827099         1.119677
 C         1.807652         0.814630         2.554798
 O         0.510071         0.357466         2.248148
 C         1.047812        -0.021612         0.912540
 C        -0.071044        -0.039449        -0.153426
 C         1.803768        -1.303936         1.305780
 C         2.764397        -0.319406         2.114336
 O         4.101280        -0.629022         2.431789
 H         4.260758         1.066107         0.002220
 H         2.667539         1.645810        -0.816499
 H         3.252123         2.591191         0.429678
 H         2.135627         1.435811         3.388400
 H        -1.073217        -0.609395         0.150571
 H        -0.456127         1.006021        -0.357255
 H         0.407118        -0.497032        -1.096341
 H         1.120717        -1.997295         1.700422
 H         2.435372        -1.639361         0.487514
 H         4.092046        -0.542573         3.407895
