19
Iteration:  2104
 C         3.002944         1.935064         0.252518
 C         2.361055         0.787487         1.068704
 C         1.834180         0.752527         2.509643
 O         0.467519         0.345929         2.052154
 C         1.131660        -0.101625         0.866477
 C         0.007914        -0.144406        -0.224249
 C         1.960385        -1.406306         1.379693
 C         2.741700        -0.375874         2.081830
 O         4.029691        -0.655853         2.667927
 H         3.788965         2.403901         0.864230
 H         3.463567         1.492637        -0.590039
 H         2.374985         2.876854        -0.014651
 H         2.077677         1.513901         3.333183
 H        -0.646709        -0.792464         0.372173
 H        -0.564250         0.728009        -0.575345
 H         0.276702        -0.768281        -1.089665
 H         1.322265        -2.184040         1.775196
 H         2.550698        -1.746823         0.540874
 H         4.291466        -0.007794         3.354386
