19
Iteration:  2364charge 0 multiplicity 1
 C         2.791822         1.859304         0.133271
 C         2.421143         0.723708         1.138249
 C         1.850207         0.768538         2.553752
 O         0.485362         0.463110         2.163045
 C         1.123348        -0.145057         0.900107
 C         0.174868        -0.098615        -0.332530
 C         1.906808        -1.355595         1.407833
 C         2.747525        -0.337391         2.108032
 O         4.063992        -0.691924         2.628486
 H         3.709420         2.292445         0.566712
 H         2.902453         1.427224        -0.869816
 H         2.005025         2.565429         0.022845
 H         2.002285         1.470222         3.398423
 H        -0.639402        -0.867397        -0.487372
 H        -0.117523         1.017590        -0.337256
 H         0.712439        -0.192755        -1.365391
 H         1.361701        -2.087628         2.128690
 H         2.565916        -1.860886         0.609410
 H         3.892738        -1.154812         3.478603
