19
Iteration:   748charge 0 multiplicity 1
 C         2.910642         1.937529         0.421464
 C         2.278361         0.857565         1.170321
 C         1.750467         0.670766         2.574334
 O         0.399851         0.125665         2.266653
 C         1.022612        -0.119974         0.948093
 C         0.307838         0.039922        -0.334177
 C         1.964189        -1.344150         1.205913
 C         2.768571        -0.341293         2.011896
 O         4.078129        -0.627757         2.448535
 H         3.647866         2.520302         1.003994
 H         3.290476         1.457270        -0.546142
 H         2.152189         2.640583         0.128635
 H         1.854151         1.150103         3.582383
 H        -0.375333        -0.782128        -0.496760
 H        -0.103223         1.038545        -0.539535
 H         1.096278         0.021007        -1.165238
 H         1.572490        -2.224607         1.764128
 H         2.281300        -1.478050         0.155853
 H         4.267204        -0.797469         3.407278
