19
Iteration:  4165charge 0 multiplicity 1
 C         3.129655         1.677636         0.221805
 C         2.391256         0.696973         1.022344
 C         1.901768         0.801344         2.488282
 O         0.577934         0.441348         2.229121
 C         1.081534        -0.122120         0.905489
 C        -0.046490         0.077703        -0.083607
 C         1.713265        -1.381281         1.363286
 C         2.791269        -0.381219         2.080851
 O         4.016008        -0.618538         2.443840
 H         3.706136         2.430485         0.794634
 H         3.875319         1.233700        -0.481976
 H         2.393757         2.198527        -0.484498
 H         1.956266         1.244140         3.463633
 H        -0.991280        -0.615239         0.203415
 H        -0.537454         1.156767        -0.210765
 H         0.065904        -0.297468        -1.146417
 H         1.359660        -2.114837         2.025133
 H         2.351058        -1.753095         0.545428
 H         4.144991        -1.146582         3.249037
