19
Iteration:    75
 C         2.985132         2.235086         0.632059
 C         2.313235         0.949472         1.103889
 C         1.827576         0.615835         2.552708
 O         0.509040         0.106549         2.226660
 C         1.110069        -0.201248         0.746299
 C         0.123359        -0.139528        -0.247710
 C         1.936980        -1.300995         1.164255
 C         2.750989        -0.315331         1.979228
 O         3.925330        -0.808852         2.497885
 H         3.706710         2.578755         1.449311
 H         3.564847         2.146082        -0.410102
 H         2.273553         2.979903         0.543319
 H         2.059532         1.285565         3.372010
 H        -0.133965        -1.089623        -0.621223
 H        -0.651624         0.488596         0.247793
 H         0.393569         0.417893        -1.196303
 H         1.531933        -2.119388         1.708228
 H         2.529031        -1.629786         0.261804
 H         4.569864        -0.037532         2.590972
