19
Iteration:  2819
 C         3.133877         1.812049         0.164100
 C         2.326626         0.831048         1.125035
 C         1.830992         0.798104         2.513053
 O         0.470506         0.340518         2.182018
 C         1.036819        -0.075338         0.971667
 C         0.113923        -0.129262        -0.214496
 C         1.851599        -1.366067         1.354005
 C         2.728622        -0.343751         2.056447
 O         4.014187        -0.659861         2.525921
 H         3.911509         2.496784         0.710484
 H         3.632214         1.480391        -0.744830
 H         2.359709         2.661007        -0.136570
 H         1.854875         1.515817         3.383703
 H        -0.746461        -0.858788         0.038691
 H        -0.374431         0.882706        -0.281245
 H         0.665944        -0.424010        -1.198484
 H         1.543670        -2.066532         2.073569
 H         2.396335        -1.828053         0.549227
 H         4.097794        -1.146197         3.349141
