19
Iteration:  2910
 C         3.215076         1.650772         0.282221
 C         2.287518         0.845696         1.088000
 C         1.756964         0.774643         2.557346
 O         0.440622         0.358979         2.176731
 C         1.012474        -0.100547         0.822265
 C         0.012196        -0.137424        -0.205832
 C         1.872058        -1.322503         1.337539
 C         2.772628        -0.285833         2.040891
 O         4.121537        -0.539175         2.541271
 H         4.259764         1.812808         0.844203
 H         3.406339         1.252954        -0.757240
 H         2.675534         2.629183         0.207881
 H         1.802641         1.338232         3.432225
 H        -0.863538        -0.712397         0.159788
 H        -0.440944         0.881806        -0.345703
 H         0.405656        -0.577964        -1.138084
 H         1.389920        -2.012615         1.855990
 H         2.498546        -1.776292         0.554997
 H         4.092279        -1.116113         3.334494
