19
Iteration:  4901
 C         3.102722         1.533008         0.129949
 C         2.279464         0.827676         1.115172
 C         1.723879         0.687017         2.560966
 O         0.358508         0.469552         2.157163
 C         1.002854        -0.204303         0.991102
 C         0.187956        -0.120855        -0.237437
 C         1.965728        -1.418696         1.378874
 C         2.788625        -0.293821         2.049195
 O         4.070228        -0.349190         2.569718
 H         3.754409         0.743665        -0.362007
 H         2.610549         2.361582        -0.510002
 H         3.873867         2.154294         0.574671
 H         1.734880         1.399639         3.375428
 H        -0.903397        -0.629644        -0.181760
 H         0.009601         1.052467        -0.376031
 H         0.646397        -0.402584        -1.277597
 H         1.579867        -2.165695         2.060814
 H         2.579357        -1.677308         0.570153
 H         4.000994        -0.945145         3.354746
