19
Iteration:  2778charge 0 multiplicity 1
 C         2.834798         1.782472         0.085539
 C         2.383016         0.728738         1.117430
 C         1.887215         0.730107         2.538482
 O         0.509357         0.378465         2.184301
 C         1.065705        -0.056605         0.931333
 C         0.145505         0.073108        -0.269482
 C         1.907235        -1.425924         1.342315
 C         2.747303        -0.436117         2.105143
 O         4.066307        -0.586275         2.688453
 H         3.731320         2.514385         0.293984
 H         3.063438         1.195350        -0.770389
 H         1.953535         2.391215        -0.050877
 H         2.185134         1.424929         3.418368
 H        -0.759777        -0.455294        -0.134674
 H         0.070493         1.091138        -0.607469
 H         0.703310        -0.419921        -1.114018
 H         1.275392        -2.285330         1.701102
 H         2.306275        -1.740426         0.344903
 H         3.983850        -1.212264         3.465219
