19
Iteration:  2610charge 0 multiplicity 1
 C         3.060129         1.777060         0.164414
 C         2.395452         0.748479         1.159564
 C         1.720086         0.786265         2.548279
 O         0.489135         0.339441         2.156837
 C         1.018916        -0.127975         0.908933
 C         0.057881        -0.014771        -0.228487
 C         1.828439        -1.394965         1.341164
 C         2.774623        -0.343203         2.033262
 O         4.160021        -0.614253         2.586269
 H         3.788868         2.240508         0.803617
 H         3.585406         1.213367        -0.600644
 H         2.356680         2.681938        -0.073660
 H         1.829155         1.441601         3.410316
 H        -0.977836        -0.531589        -0.068120
 H        -0.230579         1.076197        -0.420030
 H         0.527293        -0.447053        -1.132551
 H         1.296199        -2.350498         1.732229
 H         2.509844        -1.888354         0.527039
 H         4.034710        -0.287156         3.515894
