19
Iteration:  3878charge 0 multiplicity 1
 C         3.223766         1.553779         0.174850
 C         2.320258         0.830227         1.154880
 C         1.901468         0.798236         2.558106
 O         0.434103         0.399864         2.232330
 C         1.001384        -0.046687         0.962734
 C        -0.090130        -0.115213        -0.219652
 C         1.864042        -1.286525         1.300792
 C         2.801492        -0.349995         2.004313
 O         4.070564        -0.566436         2.531393
 H         2.690444         1.734950        -0.755877
 H         3.474001         2.572943         0.517580
 H         4.244007         0.971615         0.116055
 H         1.817194         1.576081         3.275357
 H        -1.064659        -0.542005        -0.119771
 H        -0.306145         0.871808        -0.415442
 H         0.282999        -0.582937        -1.119486
 H         1.413769        -2.251717         1.819592
 H         2.320949        -1.736486         0.441122
 H         4.153646        -0.622558         3.501673
