19
Iteration:    34
 C         2.974208         2.113592         0.651848
 C         2.391297         0.876066         1.233868
 C         1.764284         0.533756         2.564418
 O         0.468254         0.276130         2.121243
 C         1.081780        -0.069307         0.813483
 C        -0.048149        -0.250576        -0.249984
 C         2.030290        -1.163014         0.993917
 C         2.882113        -0.389163         1.945510
 O         4.029998        -0.780426         2.570342
 H         3.722302         2.557002         1.298281
 H         3.436817         1.852782        -0.298445
 H         2.171568         2.836512         0.459173
 H         1.878936         1.123707         3.416219
 H        -0.394215        -1.275236        -0.293774
 H        -0.797782         0.405416         0.175460
 H         0.142302         0.135084        -1.240832
 H         1.625605        -2.097180         1.357135
 H         2.516599        -1.224768         0.048147
 H         4.187887        -0.148756         3.281535
