19
Iteration:  3672charge 0 multiplicity 1
 C         3.203246         1.556022         0.181292
 C         2.301032         0.738924         1.062631
 C         1.845406         0.757969         2.563394
 O         0.474155         0.417229         2.242598
 C         0.991952        -0.158289         0.986840
 C         0.145959        -0.061754        -0.242550
 C         1.847594        -1.339064         1.311789
 C         2.725625        -0.383819         2.055198
 O         4.001587        -0.362679         2.510774
 H         3.310965         2.418170         0.722682
 H         4.165265         1.273538        -0.214488
 H         2.565354         1.715267        -0.737624
 H         1.874185         1.328697         3.545460
 H        -0.969376        -0.433700         0.088184
 H        -0.072973         1.003458        -0.593524
 H         0.380041        -0.849980        -0.966306
 H         1.440033        -2.191597         1.855995
 H         2.341158        -1.786962         0.507315
 H         3.991527        -0.732151         3.425113
