19
Iteration:  2305charge 0 multiplicity 1
 C         3.078588         1.916330         0.317774
 C         2.275367         0.918140         0.989651
 C         1.834514         0.729882         2.476920
 O         0.532330         0.353418         2.174308
 C         1.049844        -0.075474         0.915723
 C         0.079063        -0.245446        -0.283619
 C         1.837387        -1.399542         1.409635
 C         2.736649        -0.390325         2.037124
 O         4.016614        -0.650930         2.609052
 H         4.012079         2.136717         0.926537
 H         3.536183         1.545844        -0.666625
 H         2.622805         2.852790         0.177866
 H         2.160685         1.506339         3.134906
 H        -0.741516        -0.934372        -0.053165
 H        -0.457774         0.648445        -0.606609
 H         0.734717        -0.566282        -1.072770
 H         1.422931        -2.082169         2.080348
 H         2.440213        -1.926349         0.670082
 H         4.152495         0.058118         3.226231
