19
Iteration:  1995charge 0 multiplicity 1
 C         3.011126         1.750277         0.305154
 C         2.290729         0.762275         1.146016
 C         1.755731         0.777848         2.564764
 O         0.423993         0.348523         2.108934
 C         1.094857        -0.149293         0.927961
 C         0.198277        -0.103239        -0.335986
 C         1.946419        -1.322736         1.484618
 C         2.740971        -0.311583         2.087499
 O         4.060318        -0.550137         2.476480
 H         3.956953         2.119309         0.690854
 H         3.140479         1.422971        -0.696809
 H         2.222120         2.535503         0.077098
 H         1.903262         1.640109         3.222797
 H        -0.559298        -0.878231        -0.483856
 H        -0.329322         0.800883         0.098954
 H         0.582376         0.001578        -1.357923
 H         1.513924        -2.218333         2.006644
 H         2.508109        -1.773405         0.649033
 H         4.222091        -1.337521         2.976829
