19
Iteration:   740
 C         2.876702         1.864622         0.395360
 C         2.302041         0.795817         1.266378
 C         1.685359         0.632215         2.580006
 O         0.399087         0.180432         2.250005
 C         1.061530        -0.052804         0.936948
 C         0.285267         0.073287        -0.335623
 C         2.005468        -1.333158         1.179757
 C         2.799938        -0.376008         1.970843
 O         4.091626        -0.564239         2.449047
 H         3.695665         2.420945         0.923676
 H         3.379328         1.512913        -0.497169
 H         2.016519         2.632805         0.108139
 H         1.771284         1.098895         3.623272
 H        -0.488303        -0.772708        -0.404747
 H        -0.297565         1.002512        -0.375724
 H         1.055095        -0.103664        -1.096635
 H         1.499986        -2.186528         1.657329
 H         2.696112        -1.719428         0.354603
 H         3.990806        -1.069123         3.307724
