19
Iteration:  3424
 C         2.953603         1.856713         0.163072
 C         2.477867         0.835781         1.081759
 C         1.851368         0.831036         2.475975
 O         0.494319         0.451691         2.165392
 C         1.067513        -0.120442         0.901366
 C         0.155012        -0.241350        -0.234248
 C         1.887303        -1.381782         1.445790
 C         2.753245        -0.281641         2.062127
 O         3.963959        -0.754607         2.586350
 H         3.412956         2.794511         0.639214
 H         3.716327         1.396621        -0.473528
 H         2.144059         2.148298        -0.388292
 H         1.950792         1.474520         3.307354
 H        -0.495991        -1.048555         0.056776
 H        -0.525984         0.771133        -0.199085
 H         0.546538        -0.286109        -1.245591
 H         1.268287        -1.952083         2.095652
 H         2.388586        -1.901787         0.581014
 H         3.883779        -0.604959         3.556306
