19
Iteration:  3690charge 0 multiplicity 1
 C         3.208736         1.551720         0.261304
 C         2.303925         0.723862         1.122511
 C         1.764411         0.770678         2.493146
 O         0.452263         0.380315         2.199728
 C         1.035046        -0.121742         0.928087
 C        -0.060856        -0.012099        -0.252673
 C         1.870732        -1.444573         1.365378
 C         2.745624        -0.369211         2.023955
 O         4.129457        -0.310077         2.554026
 H         3.568460         2.652351         0.484118
 H         4.117206         0.871403         0.144986
 H         2.868635         1.624888        -0.806300
 H         2.105115         1.483999         3.283533
 H        -1.039077        -0.326240         0.143223
 H        -0.124834         0.987353        -0.482956
 H         0.306396        -0.615590        -1.160852
 H         1.249015        -2.316098         1.842604
 H         2.424834        -1.931075         0.488555
 H         4.170322        -0.799969         3.414426
