19
Iteration:  4468
 C         3.114300         1.812403         0.194774
 C         2.421545         0.737797         1.044780
 C         1.872818         0.856654         2.497821
 O         0.593639         0.486063         2.266571
 C         1.006598        -0.031242         0.954566
 C         0.062503        -0.245308        -0.177637
 C         1.771379        -1.356649         1.344945
 C         2.706509        -0.363386         2.090969
 O         3.971665        -0.670616         2.453759
 H         3.308522         1.286284        -0.696027
 H         2.592447         2.700271         0.044042
 H         4.145022         1.979433         0.697894
 H         2.062769         1.462710         3.396026
 H        -0.541121        -1.058262         0.029047
 H        -0.581823         0.653417        -0.273513
 H         0.719247        -0.416778        -0.990257
 H         0.972532        -1.991445         1.702760
 H         2.180999        -1.824253         0.452223
 H         3.999050        -0.829422         3.418259
