19
Iteration:   537
 C         2.836940         1.850631         0.303466
 C         2.418359         0.825110         1.264110
 C         1.747555         0.595663         2.606563
 O         0.434106         0.237302         2.076296
 C         1.080737        -0.046196         0.866048
 C         0.049906         0.063034        -0.235088
 C         2.068325        -1.291676         1.084821
 C         2.856484        -0.451345         2.115808
 O         4.040183        -0.593935         2.753050
 H         3.741345         2.355040         0.607029
 H         2.977587         1.205601        -0.748277
 H         2.324141         2.669694        -0.026766
 H         1.847515         1.228749         3.628199
 H        -0.884610        -0.545774        -0.007743
 H        -0.156528         1.156062        -0.203518
 H         0.459001         0.028416        -1.247716
 H         1.776148        -2.377926         1.207525
 H         2.462537        -1.373505         0.041026
 H         4.532014        -1.261022         2.138795
