19
Iteration:  2684charge 0 multiplicity 1
 C         3.296555         1.703180         0.417219
 C         2.307335         0.794921         1.126528
 C         1.795236         0.729759         2.614812
 O         0.462106         0.487590         2.133828
 C         1.020968        -0.048313         0.855609
 C        -0.070690        -0.309094        -0.201855
 C         1.860065        -1.306303         1.288630
 C         2.789158        -0.322409         2.015103
 O         4.059052        -0.489648         2.430393
 H         4.105161         1.927223         1.059496
 H         3.689599         1.222981        -0.569571
 H         2.701751         2.686166         0.294861
 H         1.929340         1.287770         3.576771
 H        -0.625999        -1.266713         0.049090
 H        -0.715436         0.595544        -0.383632
 H         0.357255        -0.472358        -1.194992
 H         1.316664        -2.050309         1.782136
 H         2.192751        -1.825302         0.438319
 H         4.095207        -1.031659         3.229959
