19
Iteration:  3266
 C         3.225682         1.597965         0.358527
 C         2.269121         0.793223         1.101220
 C         1.721182         0.757733         2.582372
 O         0.468573         0.336924         2.117307
 C         1.044882        -0.139191         0.824203
 C        -0.015027        -0.142623        -0.236290
 C         1.901920        -1.265720         1.368558
 C         2.720636        -0.272472         2.099683
 O         4.130567        -0.453389         2.454404
 H         4.112397         1.874584         0.840118
 H         3.559641         0.858252        -0.413551
 H         2.961448         2.656957        -0.105982
 H         1.785809         1.468380         3.397470
 H        -0.892293        -0.696938         0.313934
 H        -0.276413         0.904609        -0.561313
 H         0.287195        -0.793299        -1.191438
 H         1.261028        -2.051720         1.988015
 H         2.598334        -1.822992         0.683285
 H         3.963170        -0.547261         3.424804
