19
Iteration:  3347
 C         3.052903         1.784950         0.121513
 C         2.392094         0.751693         1.109357
 C         1.754375         0.792969         2.499380
 O         0.399804         0.338999         2.092329
 C         1.130067        -0.192431         0.873113
 C         0.122013        -0.070036        -0.241663
 C         1.869126        -1.374723         1.509391
 C         2.750010        -0.365142         2.129821
 O         4.091164        -0.549919         2.580445
 H         4.138171         1.988997         0.444305
 H         3.061220         1.581323        -0.970024
 H         2.507545         2.689584         0.227060
 H         1.954954         1.510941         3.267371
 H        -0.771069        -0.619362         0.111517
 H        -0.163753         1.095858        -0.240619
 H         0.453220        -0.425695        -1.219855
 H         1.269591        -1.976782         2.132587
 H         2.262274        -1.855985         0.624262
 H         3.955875        -0.619461         3.554670
