19
Iteration:  3271charge 0 multiplicity 1
 C         3.221879         1.587209         0.330428
 C         2.292556         0.816079         1.178090
 C         1.761462         0.751960         2.574543
 O         0.441194         0.327061         2.118477
 C         1.005957        -0.121468         0.819444
 C        -0.001743        -0.174019        -0.262929
 C         1.888428        -1.278297         1.377551
 C         2.729717        -0.257831         2.064862
 O         4.124736        -0.427890         2.462143
 H         4.203307         1.667982         0.986907
 H         3.482230         0.869225        -0.478220
 H         3.006348         2.497718        -0.118504
 H         1.716800         1.432571         3.472111
 H        -0.854475        -0.563327         0.245504
 H        -0.220658         0.893870        -0.480200
 H         0.228543        -0.814736        -1.025210
 H         1.299408        -2.014623         1.780166
 H         2.537986        -1.696332         0.631132
 H         4.132173        -0.607016         3.414254
