19
Iteration:  4956charge 0 multiplicity 1
 C         3.197285         1.606926         0.182486
 C         2.264445         0.864904         1.072289
 C         1.734919         0.817998         2.481804
 O         0.365867         0.379930         2.177404
 C         1.073360        -0.195495         0.921216
 C         0.145357        -0.197541        -0.260452
 C         1.937312        -1.418923         1.434246
 C         2.747685        -0.248093         2.065539
 O         4.060058        -0.419496         2.567063
 H         2.918448         1.602918        -0.900665
 H         3.063973         2.699119         0.467025
 H         4.206831         1.310974         0.386695
 H         1.892449         1.249952         3.464402
 H        -0.880148        -0.646745         0.070658
 H        -0.215236         0.887775        -0.573370
 H         0.409271        -0.667136        -1.250792
 H         1.596675        -2.195568         2.114320
 H         2.456736        -1.997867         0.718283
 H         3.896682        -0.432138         3.533427
