19
Iteration:  2793charge 0 multiplicity 1
 C         2.856398         1.708230         0.146322
 C         2.309241         0.786919         1.154328
 C         1.842081         0.798573         2.526475
 O         0.503258         0.403236         2.237803
 C         1.092056        -0.137706         0.909272
 C         0.149777         0.009096        -0.319056
 C         1.897089        -1.342010         1.295777
 C         2.859454        -0.330022         2.025904
 O         4.044454        -0.675559         2.668390
 H         3.604505         2.221273         0.602042
 H         3.323774         1.327081        -0.824415
 H         2.209334         2.493243        -0.169196
 H         1.934140         1.427934         3.346712
 H        -0.814817        -0.453239        -0.042542
 H        -0.151944         1.059101        -0.339878
 H         0.510676        -0.385270        -1.231356
 H         1.478895        -2.110654         2.145989
 H         2.510861        -1.854784         0.519289
 H         3.930369        -1.356316         3.340194
