19
Iteration:  1946
 C         2.900632         1.866238         0.278163
 C         2.375323         0.804839         1.167621
 C         1.903369         0.650167         2.509241
 O         0.504978         0.417909         2.169730
 C         1.093325        -0.066071         0.907047
 C         0.100354        -0.135314        -0.278644
 C         1.902923        -1.394032         1.277694
 C         2.772080        -0.430089         1.985238
 O         3.988477        -0.552919         2.657846
 H         3.850812         2.275575         0.724700
 H         3.182097         1.298770        -0.698905
 H         2.233691         2.651682        -0.115017
 H         2.090126         1.369243         3.421295
 H        -0.382286        -1.137247        -0.244647
 H        -0.575899         0.659390        -0.474555
 H         0.734090        -0.352560        -1.165827
 H         1.510913        -2.199947         1.889693
 H         2.329442        -1.949216         0.443548
 H         3.924646        -0.075389         3.535411
