19
Iteration:   506charge 0 multiplicity 1
 C         2.981625         1.933062         0.243142
 C         2.236080         0.900879         1.200068
 C         1.764462         0.618360         2.596525
 O         0.507475         0.098520         2.244218
 C         1.121753        -0.043055         0.847443
 C         0.131972         0.045028        -0.210436
 C         2.028765        -1.350804         1.101173
 C         2.817149        -0.322892         1.987761
 O         3.886571        -0.664426         2.716841
 H         3.928599         2.125442         0.762031
 H         3.354106         1.393011        -0.667880
 H         2.591214         2.851057        -0.111615
 H         1.947543         1.127676         3.632340
 H        -0.748933        -0.471390         0.064191
 H        -0.287371         1.091791        -0.249424
 H         0.554745        -0.194273        -1.214539
 H         1.546849        -2.317358         1.531159
 H         2.504181        -1.561116         0.159997
 H         4.681878        -0.442186         2.252046
