19
Iteration:  4783charge 0 multiplicity 1
 C         3.074117         1.771199         0.152123
 C         2.434768         0.826273         1.131922
 C         1.833473         0.870988         2.459633
 O         0.473291         0.345832         2.194990
 C         1.027305        -0.131996         0.865873
 C         0.008133        -0.233149        -0.262975
 C         1.847021        -1.345619         1.444716
 C         2.844765        -0.310100         2.072078
 O         4.036997        -0.594697         2.596956
 H         3.792498         2.403989         0.714364
 H         3.595870         1.237702        -0.700945
 H         2.339636         2.468020        -0.266714
 H         2.021661         1.667498         3.191352
 H        -0.915244        -0.672547        -0.024179
 H        -0.255934         0.821737        -0.498430
 H         0.387435        -0.664792        -1.140584
 H         1.134800        -1.927315         2.168113
 H         2.382820        -1.965483         0.704559
 H         3.889824        -0.830806         3.531044
