19
Iteration:  2969charge 0 multiplicity 1
 C         2.891343         1.784770         0.132526
 C         2.337986         0.790249         1.082964
 C         1.859780         0.735205         2.486352
 O         0.492271         0.346997         2.211747
 C         1.053673        -0.115868         0.886055
 C         0.194801         0.061215        -0.314845
 C         1.792981        -1.416841         1.440250
 C         2.819827        -0.396121         2.053408
 O         4.119999        -0.628823         2.693849
 H         3.777816         2.444074         0.316571
 H         3.079930         1.212163        -0.973499
 H         1.978562         2.486872        -0.118274
 H         1.810767         1.610269         3.251389
 H        -0.760545        -0.440039        -0.156259
 H         0.112714         1.116354        -0.532734
 H         0.734258        -0.425096        -1.135384
 H         1.231809        -2.148647         2.088515
 H         2.340817        -1.928779         0.680218
 H         3.868702        -0.806530         3.605818
