19
Iteration:  1157
 C         2.882754         1.958783         0.419770
 C         2.406049         0.815213         1.225002
 C         1.763142         0.621151         2.516888
 O         0.439492         0.274983         2.048768
 C         1.144877        -0.102972         0.889786
 C         0.098359        -0.048459        -0.252971
 C         1.954508        -1.310730         1.235435
 C         2.833134        -0.445347         2.035137
 O         4.068520        -0.597658         2.574072
 H         3.717157         2.501847         0.867660
 H         3.210412         1.596230        -0.571680
 H         2.107056         2.819540         0.167686
 H         1.843411         1.081122         3.563392
 H        -0.532634        -0.970224        -0.240520
 H        -0.605821         0.776607        -0.041880
 H         0.536779         0.071799        -1.278964
 H         1.577498        -2.292722         1.636427
 H         2.463600        -1.553281         0.267770
 H         3.934220        -0.798444         3.542099
