19
Iteration:  2366charge 0 multiplicity 1
 C         2.807243         1.837009         0.128615
 C         2.410153         0.738146         1.149107
 C         1.844501         0.770873         2.522644
 O         0.493677         0.451018         2.176364
 C         1.116164        -0.131922         0.874249
 C         0.169588        -0.080335        -0.324086
 C         1.916046        -1.362976         1.415133
 C         2.756020        -0.354403         2.108219
 O         4.060891        -0.680363         2.634171
 H         3.647696         2.280310         0.515407
 H         2.957944         1.465142        -0.849460
 H         1.920304         2.588657         0.082590
 H         1.964444         1.418814         3.415386
 H        -0.614479        -0.832486        -0.458584
 H        -0.133953         0.976836        -0.401427
 H         0.763210        -0.202235        -1.294744
 H         1.362412        -2.091389         2.187397
 H         2.524513        -1.820554         0.638183
 H         3.872593        -1.183095         3.423513
