19
Iteration:  4763charge 0 multiplicity 1
 C         3.141558         1.725031         0.177641
 C         2.288366         0.726665         1.037650
 C         1.772727         0.760122         2.511631
 O         0.444207         0.469118         2.111756
 C         1.002608        -0.221156         0.948746
 C         0.121327        -0.067897        -0.131745
 C         1.917824        -1.430733         1.458167
 C         2.777840        -0.352710         1.979293
 O         4.043726        -0.428837         2.565840
 H         3.522198         2.432489         0.812700
 H         3.816854         1.099235        -0.289273
 H         2.510594         2.131080        -0.644002
 H         2.070621         1.239801         3.454634
 H        -0.750106        -0.517709         0.166195
 H        -0.067544         0.974076        -0.523618
 H         0.421339        -0.636024        -0.916844
 H         1.438296        -2.217915         2.109312
 H         2.374669        -1.914300         0.549769
 H         3.955264        -0.969017         3.368578
