19
Iteration:  3141
 C         2.963724         1.714852         0.159703
 C         2.355404         0.748928         1.095872
 C         1.829526         0.812093         2.553617
 O         0.481693         0.332089         2.225184
 C         1.016691        -0.092370         0.917555
 C         0.183926        -0.032646        -0.341512
 C         1.804415        -1.383535         1.379980
 C         2.790713        -0.369395         2.083575
 O         4.054530        -0.519514         2.606007
 H         4.094963         1.941741         0.466849
 H         3.021873         1.299131        -0.876217
 H         2.482294         2.643848        -0.056750
 H         2.038402         1.362167         3.603837
 H        -0.769245        -0.553793        -0.144604
 H        -0.094653         0.956366        -0.813235
 H         0.815588        -0.624713        -1.021635
 H         1.321186        -2.183105         2.068860
 H         2.366509        -1.869913         0.460890
 H         4.176428        -0.817131         3.541353
