19
Iteration:  3133charge 0 multiplicity 1
 C         3.067905         1.703545         0.144467
 C         2.340488         0.771086         1.138478
 C         1.833846         0.733567         2.513944
 O         0.481115         0.330559         2.228624
 C         1.046262        -0.078117         0.927053
 C         0.199518        -0.022158        -0.305514
 C         1.786318        -1.441176         1.380702
 C         2.714160        -0.373398         2.082586
 O         4.078522        -0.432140         2.582235
 H         4.067344         1.932448         0.464386
 H         3.016085         1.368324        -0.862529
 H         2.410837         2.651797         0.084032
 H         1.983389         1.303954         3.450080
 H        -0.786246        -0.526232        -0.039264
 H        -0.114558         0.925541        -0.759783
 H         0.658846        -0.768374        -1.068846
 H         1.241218        -2.197380         1.959922
 H         2.150290        -1.850802         0.434004
 H         3.929022        -0.801138         3.497762
