19
Iteration:  2807
 C         3.000530         1.803921         0.191657
 C         2.348465         0.837215         1.067646
 C         1.789750         0.801030         2.506433
 O         0.457294         0.353363         2.208404
 C         1.056436        -0.121676         0.899208
 C         0.117541        -0.043237        -0.188324
 C         1.946282        -1.342272         1.414598
 C         2.806088        -0.323543         2.040556
 O         4.041195        -0.693629         2.573621
 H         3.878794         2.289290         0.685255
 H         3.337965         1.095305        -0.603667
 H         2.202000         2.512803        -0.318289
 H         2.136892         1.424623         3.342236
 H        -0.787794        -0.770931        -0.153296
 H        -0.176785         1.007274        -0.480095
 H         0.725429        -0.392066        -1.112579
 H         1.285123        -2.107081         1.859125
 H         2.390673        -1.771362         0.536489
 H         3.621833        -1.251346         3.265754
