19
Iteration:  3930
 C         3.334308         1.674738         0.317749
 C         2.328116         0.717973         1.038601
 C         1.842788         0.759025         2.531688
 O         0.480634         0.500246         2.179483
 C         0.991902        -0.080759         0.889060
 C        -0.102669        -0.127924        -0.183809
 C         1.732307        -1.383704         1.475024
 C         2.765992        -0.404996         2.023917
 O         4.120664        -0.456689         2.410626
 H         2.949495         1.753706        -0.710924
 H         3.307780         2.696328         0.701243
 H         4.301598         1.329724         0.337218
 H         2.065588         1.368646         3.409195
 H        -0.682595        -1.066251        -0.076014
 H        -0.884365         0.672841        -0.277875
 H         0.457237        -0.366546        -1.200086
 H         1.156537        -1.970580         2.130776
 H         2.130643        -1.956773         0.670484
 H         4.234012        -1.070493         3.171277
