19
Iteration:  2139charge 0 multiplicity 1
 C         2.872496         1.902037         0.267134
 C         2.294627         0.769569         1.036415
 C         1.904650         0.813190         2.470135
 O         0.485802         0.387317         2.204830
 C         0.983543        -0.026300         0.941277
 C         0.239725        -0.203173        -0.322671
 C         1.891112        -1.366732         1.429666
 C         2.879843        -0.322298         1.951061
 O         3.970657        -0.731435         2.636860
 H         3.733911         2.140127         0.792085
 H         3.276080         1.592646        -0.722993
 H         2.159656         2.694667         0.114663
 H         2.094861         1.378578         3.486320
 H        -0.350906        -1.124823        -0.154403
 H        -0.391785         0.606741        -0.635157
 H         0.998473        -0.438797        -1.107305
 H         1.407340        -2.094912         2.075835
 H         2.384424        -1.851653         0.618232
 H         3.958464        -0.266967         3.498351
