19
Iteration:  2136charge 0 multiplicity 1
 C         2.890098         1.898299         0.251355
 C         2.318521         0.766255         1.052989
 C         1.884569         0.832172         2.464742
 O         0.507136         0.381464         2.211607
 C         0.991179        -0.049197         0.946030
 C         0.209457        -0.208031        -0.329166
 C         1.911523        -1.340891         1.430120
 C         2.845503        -0.312971         1.934322
 O         3.972092        -0.732854         2.654874
 H         3.781897         2.109820         0.898180
 H         3.293104         1.720714        -0.718646
 H         2.067860         2.738411         0.096649
 H         2.088746         1.254242         3.476757
 H        -0.314151        -1.139332        -0.225258
 H        -0.374027         0.668568        -0.616354
 H         0.921974        -0.568415        -1.075076
 H         1.396905        -2.100603         2.008904
 H         2.217559        -1.909374         0.520309
 H         4.009701        -0.253526         3.476226
