19
Iteration:  2313
 C         3.100500         1.931900         0.284733
 C         2.302365         0.858820         1.060542
 C         1.898061         0.713108         2.494534
 O         0.506639         0.402958         2.223917
 C         1.071628        -0.152382         0.869162
 C         0.093968        -0.244087        -0.325509
 C         1.808175        -1.361961         1.437771
 C         2.764280        -0.343718         1.971387
 O         3.991706        -0.665647         2.622207
 H         3.899249         2.294980         0.841377
 H         3.215428         1.693854        -0.751758
 H         2.267568         2.828452         0.224707
 H         2.051306         1.531348         3.251881
 H        -0.585708        -1.052119        -0.188148
 H        -0.411536         0.622060        -0.601994
 H         0.712483        -0.571260        -1.140648
 H         1.341026        -2.132139         2.071685
 H         2.237580        -1.861747         0.641454
 H         4.200201        -0.048850         3.313086
