19
Iteration:   386charge 0 multiplicity 1
 C         2.949823         1.999006         0.503835
 C         2.365545         0.839871         1.206668
 C         1.837848         0.655590         2.572630
 O         0.482633         0.225577         2.250538
 C         1.080184        -0.015289         0.874587
 C         0.116308        -0.086955        -0.268705
 C         1.957532        -1.367430         0.996703
 C         2.760772        -0.421968         1.908678
 O         3.951763        -0.620394         2.706273
 H         3.851135         2.469353         0.892746
 H         3.275294         1.714773        -0.477570
 H         2.223984         2.831142         0.281024
 H         2.283495         1.097605         3.425432
 H        -0.581511        -0.862099         0.041139
 H        -0.550540         0.740965        -0.579741
 H         0.649611        -0.464877        -1.139337
 H         1.362111        -2.218427         1.406328
 H         2.461792        -1.559366         0.080457
 H         4.621357        -0.744019         1.953027
