19
Iteration:  3933
 C         3.296657         1.659835         0.322155
 C         2.348543         0.753861         1.023268
 C         1.857192         0.737603         2.503424
 O         0.468583         0.511399         2.193628
 C         0.966514        -0.050571         0.886195
 C        -0.105606        -0.149688        -0.206979
 C         1.722334        -1.389993         1.474538
 C         2.809954        -0.418621         2.044824
 O         4.125260        -0.457698         2.413831
 H         2.972508         1.732998        -0.699951
 H         3.246590         2.658812         0.762185
 H         4.410655         1.325855         0.337698
 H         2.045097         1.298044         3.411745
 H        -0.732370        -1.068005        -0.065318
 H        -0.777908         0.680885        -0.260970
 H         0.480175        -0.282948        -1.180673
 H         1.103244        -2.003050         2.282713
 H         2.210034        -1.908169         0.654270
 H         4.162335        -1.062719         3.172081
