19
Iteration:  3733charge 0 multiplicity 1
 C         3.284962         1.650031         0.236194
 C         2.299117         0.813376         1.091205
 C         1.842705         0.858412         2.471037
 O         0.477019         0.402584         2.198193
 C         1.001378        -0.166038         0.878147
 C         0.023767        -0.125914        -0.149739
 C         1.850003        -1.419964         1.378022
 C         2.710958        -0.289056         2.058939
 O         4.011142        -0.518425         2.486367
 H         3.184706         2.779666         0.448219
 H         4.321419         1.240316         0.337353
 H         2.939073         1.665164        -0.784304
 H         1.775080         1.537952         3.345299
 H        -0.574388        -0.859264         0.221311
 H        -0.471186         0.751142        -0.219966
 H         0.384748        -0.437801        -1.159472
 H         1.382541        -2.235376         2.021105
 H         2.487317        -1.823619         0.528977
 H         3.970806        -0.681356         3.447834
