19
Iteration:  1400charge 0 multiplicity 1
 C         2.962149         1.838164         0.397986
 C         2.317594         0.801514         1.161535
 C         1.797847         0.599956         2.630362
 O         0.442719         0.437902         2.111112
 C         1.045153        -0.139462         0.860024
 C         0.143954        -0.147658        -0.259305
 C         1.914926        -1.382928         1.271376
 C         2.803895        -0.410050         2.000140
 O         4.074065        -0.519234         2.527414
 H         3.923866         2.146064         0.810825
 H         3.278734         1.517265        -0.531552
 H         2.199991         2.717061         0.350061
 H         2.084158         1.492460         3.304402
 H        -0.741197        -0.764498         0.000015
 H        -0.119008         0.903978        -0.531618
 H         0.607820        -0.680264        -1.091456
 H         1.288400        -2.246531         1.700667
 H         2.462909        -1.685288         0.372724
 H         4.286268        -0.089011         3.361501
