19
Iteration:  3295
 C         3.311681         1.583626         0.248643
 C         2.292283         0.756088         1.181983
 C         1.698985         0.758451         2.588689
 O         0.417435         0.379286         2.256219
 C         0.972235        -0.102864         0.918944
 C         0.105205        -0.152784        -0.229269
 C         1.934411        -1.359157         1.229905
 C         2.643760        -0.343082         2.031139
 O         4.061625        -0.296835         2.490912
 H         4.433462         1.529180         0.603060
 H         3.254610         1.102804        -0.711433
 H         3.061309         2.559788        -0.031085
 H         1.845478         1.333301         3.434643
 H        -0.818338        -0.485325         0.079067
 H         0.040690         0.742876        -0.752870
 H         0.511386        -1.002938        -0.690257
 H         1.406032        -2.181047         1.670998
 H         2.428055        -1.713665         0.294210
 H         4.029311        -0.944029         3.222613
