19
Iteration:   371
 C         2.912737         1.968470         0.389160
 C         2.345673         0.837510         1.223859
 C         1.788003         0.520770         2.593044
 O         0.490194         0.277046         2.139640
 C         1.110229        -0.120993         0.854262
 C         0.050614         0.018843        -0.233332
 C         1.993866        -1.321910         1.037576
 C         2.827225        -0.448709         2.027847
 O         4.000391        -0.581280         2.707588
 H         3.777221         2.346491         0.913811
 H         3.121710         1.640926        -0.697853
 H         2.186886         2.711912         0.341519
 H         1.809725         0.997507         3.612907
 H        -0.900235        -0.564667         0.060016
 H        -0.273592         1.051798        -0.161299
 H         0.413104        -0.155592        -1.242321
 H         1.663426        -2.339910         1.271424
 H         2.575322        -1.458716         0.048015
 H         4.803873        -0.888940         2.308721
