19
Iteration:  2117charge 0 multiplicity 1
 C         3.007572         2.003376         0.262453
 C         2.397110         0.842191         1.093160
 C         1.869914         0.754169         2.471636
 O         0.485587         0.398118         2.212744
 C         1.050555        -0.168395         0.848143
 C         0.102124        -0.275107        -0.265911
 C         1.855569        -1.394066         1.304629
 C         2.815741        -0.354728         2.059806
 O         3.973623        -0.687281         2.666067
 H         3.864243         2.490572         0.627599
 H         3.299598         1.560076        -0.702939
 H         2.201505         2.668683        -0.029118
 H         1.996832         1.604259         3.274850
 H        -0.821090        -0.859284        -0.080722
 H        -0.205388         0.759067        -0.386010
 H         0.606678        -0.558574        -1.219891
 H         1.308332        -2.117367         1.930834
 H         2.467272        -1.880745         0.601068
 H         4.120535        -0.010500         3.350031
