19
Iteration:  2703charge 0 multiplicity 1
 C         3.200811         1.795745         0.360199
 C         2.356472         0.821936         1.152629
 C         1.808026         0.830210         2.446544
 O         0.444582         0.353910         2.168660
 C         1.052760        -0.100619         0.904416
 C         0.050862        -0.184399        -0.158590
 C         1.827234        -1.363374         1.332934
 C         2.709650        -0.336600         2.027390
 O         4.029776        -0.575118         2.421024
 H         4.143015         1.893866         0.903594
 H         3.464947         1.244769        -0.531551
 H         2.849182         2.736858         0.225394
 H         1.904018         1.570205         3.309930
 H        -0.536601        -1.007789         0.107417
 H        -0.550892         0.696451        -0.265928
 H         0.552230        -0.430839        -1.071063
 H         1.296984        -2.256242         1.888504
 H         2.517576        -1.773873         0.554138
 H         4.063069        -0.756748         3.359858
