19
Iteration:  3469charge 0 multiplicity 1
 C         3.154974         1.648990         0.252396
 C         2.347473         0.728286         1.088039
 C         1.782301         0.772760         2.495142
 O         0.445210         0.408168         2.190679
 C         1.039515        -0.188011         0.888776
 C         0.041546        -0.083166        -0.214934
 C         1.842705        -1.420253         1.380478
 C         2.783135        -0.379453         2.045870
 O         4.025983        -0.364378         2.541237
 H         3.910133         2.312608         0.825432
 H         3.764154         1.149201        -0.484442
 H         2.563312         2.364451        -0.223660
 H         2.113587         1.354818         3.406056
 H        -0.918464        -0.505484         0.052344
 H        -0.007379         1.047109        -0.622091
 H         0.533110        -0.618775        -1.083810
 H         1.353735        -2.065199         2.047335
 H         2.493106        -1.791550         0.531546
 H         4.117254        -0.964206         3.320055
