19
Iteration:  1699
 C         3.018858         1.787239         0.287633
 C         2.338200         0.747686         1.095935
 C         1.774480         0.866957         2.441281
 O         0.457190         0.306876         2.213049
 C         1.019414        -0.137683         0.952789
 C         0.161199        -0.132681        -0.274065
 C         1.823952        -1.385704         1.373875
 C         2.836285        -0.321533         2.095543
 O         4.073212        -0.517050         2.494946
 H         3.797772         2.244221         0.970014
 H         3.552551         1.397676        -0.613832
 H         2.298510         2.642613         0.026729
 H         1.892209         1.352790         3.505409
 H        -0.728314        -0.743100        -0.252242
 H        -0.210802         0.833136        -0.675135
 H         0.892454        -0.489005        -1.041865
 H         1.383926        -2.070467         2.100023
 H         2.309211        -1.799147         0.436163
 H         4.024708        -1.167053         3.249645
