19
Iteration:  2681charge 0 multiplicity 1
 C         3.288145         1.717842         0.408825
 C         2.336395         0.791572         1.147676
 C         1.821758         0.711244         2.587257
 O         0.429767         0.494787         2.146788
 C         1.030004        -0.064055         0.848002
 C        -0.092698        -0.315889        -0.213368
 C         1.829166        -1.294161         1.307244
 C         2.789455        -0.311289         1.996169
 O         4.072453        -0.476164         2.439146
 H         4.124998         1.919295         1.093196
 H         3.677208         1.214881        -0.461055
 H         2.869080         2.618394         0.249481
 H         1.914110         1.250087         3.607824
 H        -0.609760        -1.176372         0.028890
 H        -0.722353         0.522084        -0.347048
 H         0.388684        -0.487218        -1.162586
 H         1.257743        -2.196993         1.742023
 H         2.287524        -1.756674         0.369902
 H         4.116805        -1.085240         3.225149
