19
Iteration:  4349charge 0 multiplicity 1
 C         3.260700         1.518091         0.182665
 C         2.323358         0.823824         1.108333
 C         1.805049         0.855341         2.559647
 O         0.500388         0.351027         2.229534
 C         1.104610        -0.010642         0.961798
 C        -0.081495        -0.064155        -0.133451
 C         1.819218        -1.308599         1.304764
 C         2.743347        -0.338327         2.086897
 O         4.052921        -0.613611         2.405639
 H         4.222751         1.078113         0.055134
 H         2.782706         1.633164        -0.744233
 H         3.197598         2.627829         0.552727
 H         2.028127         1.416192         3.478788
 H        -0.956139        -0.602453         0.151132
 H        -0.457999         0.978863        -0.279860
 H         0.381332        -0.412572        -1.004751
 H         1.042258        -2.092519         1.700414
 H         2.419357        -1.653630         0.415210
 H         4.160051        -0.550124         3.372524
