19
Iteration:  4538
 C         3.197645         1.522463         0.212290
 C         2.317656         0.694423         1.102493
 C         1.770539         0.810117         2.480574
 O         0.523666         0.293501         2.308372
 C         1.077376        -0.135432         0.813302
 C        -0.029026         0.072796        -0.210684
 C         1.787002        -1.353045         1.350628
 C         2.729632        -0.370278         2.164408
 O         4.071786        -0.356654         2.449199
 H         2.954707         1.561914        -0.881849
 H         3.332842         2.532703         0.682197
 H         4.207302         1.107235         0.346819
 H         2.012229         1.640989         3.146673
 H        -1.042687        -0.339799         0.056099
 H        -0.206555         1.077908        -0.434552
 H         0.310759        -0.467577        -1.100405
 H         1.339350        -2.234670         1.979950
 H         2.484198        -1.888612         0.621732
 H         4.236077        -0.938659         3.216031
