19
Iteration:  3861
 C         3.126400         1.625637         0.103831
 C         2.376907         0.768509         1.139523
 C         1.809064         0.744288         2.532424
 O         0.540322         0.422492         2.251535
 C         0.998075        -0.067945         0.929819
 C         0.087633        -0.040882        -0.185624
 C         1.785321        -1.353168         1.277797
 C         2.722903        -0.345445         2.049615
 O         4.056413        -0.534746         2.559065
 H         2.505166         1.812373        -0.801223
 H         3.434632         2.637225         0.404617
 H         4.065330         1.086046        -0.111044
 H         2.221521         1.111246         3.484584
 H        -0.844608        -0.492507         0.318205
 H        -0.291897         1.009066        -0.562614
 H         0.445584        -0.830425        -0.899746
 H         1.304993        -2.142439         1.831046
 H         2.249239        -1.924331         0.394382
 H         3.856835        -0.507267         3.514742
