19
Iteration:  4776
 C         3.094054         1.728990         0.155365
 C         2.390533         0.845471         1.105054
 C         1.808384         0.826928         2.467688
 O         0.478410         0.394133         2.149809
 C         1.043804        -0.165255         0.942282
 C         0.030247        -0.195903        -0.231860
 C         1.861014        -1.417317         1.451920
 C         2.796426        -0.302035         2.019132
 O         4.049105        -0.545424         2.588716
 H         3.701517         2.419194         0.683779
 H         3.771482         1.322769        -0.510706
 H         2.409194         2.441605        -0.388632
 H         1.860289         1.452111         3.360505
 H        -1.012101        -0.532906         0.015098
 H        -0.097452         0.916840        -0.345012
 H         0.432065        -0.645702        -1.152899
 H         1.434643        -1.981213         2.233327
 H         2.280069        -2.003743         0.594316
 H         3.857823        -0.889811         3.486106
