19
Iteration:  2594charge 0 multiplicity 1
 C         2.931948         1.733960         0.189850
 C         2.349573         0.775697         1.102092
 C         1.880708         0.702540         2.537343
 O         0.431159         0.392686         2.206972
 C         1.065340        -0.111078         0.932917
 C         0.178286         0.003836        -0.271837
 C         1.866136        -1.340556         1.295521
 C         2.801787        -0.423786         2.096118
 O         4.051934        -0.604278         2.613401
 H         3.759291         2.439595         0.500326
 H         3.256928         1.230953        -0.809489
 H         2.092516         2.361586        -0.111875
 H         2.047292         1.268911         3.471250
 H        -0.762602        -0.477799        -0.063183
 H         0.017366         1.030098        -0.539772
 H         0.573949        -0.498031        -1.168933
 H         1.391670        -2.125588         1.816947
 H         2.200443        -1.788566         0.399623
 H         4.178173        -0.219969         3.510417
