19
Iteration:  1808charge 0 multiplicity 1
 C         3.095412         1.898169         0.252401
 C         2.258841         0.872307         1.025911
 C         1.723423         0.780525         2.475635
 O         0.486756         0.238851         2.249677
 C         1.125544        -0.189840         0.900528
 C         0.154177        -0.110696        -0.269375
 C         1.829862        -1.379338         1.377574
 C         2.785477        -0.302027         2.053847
 O         4.078435        -0.543916         2.618539
 H         3.989323         2.276869         0.787110
 H         3.369337         1.578043        -0.730134
 H         2.373829         2.723762        -0.077876
 H         1.816517         1.358562         3.408115
 H        -0.623023        -0.881533        -0.178364
 H        -0.380176         0.892310        -0.165124
 H         0.533612        -0.394761        -1.289182
 H         1.238410        -2.057255         2.037199
 H         2.317874        -2.007747         0.519892
 H         4.020156        -1.506009         2.714534
