19
Iteration:  2878
 C         3.395159         1.737266         0.440923
 C         2.331506         0.830967         1.041288
 C         1.775428         0.810681         2.456693
 O         0.435984         0.412790         2.187094
 C         0.969203        -0.187594         0.857491
 C        -0.024728        -0.224409        -0.156500
 C         1.811976        -1.404323         1.358095
 C         2.693293        -0.356324         2.026800
 O         4.063597        -0.446733         2.419602
 H         4.271419         1.977911         1.196428
 H         3.734222         1.454979        -0.607421
 H         2.771890         2.592053         0.231901
 H         2.007870         1.393142         3.287094
 H        -0.781908        -0.969337        -0.011005
 H        -0.493126         0.790055        -0.046922
 H         0.385668        -0.314727        -1.144881
 H         1.377276        -2.111635         1.940151
 H         2.396144        -1.903290         0.579736
 H         4.276921        -0.906956         3.270543
