19
Iteration:  3044
 C         3.240682         1.754215         0.322634
 C         2.370143         0.842130         1.133652
 C         1.810560         0.695895         2.575827
 O         0.435389         0.479305         2.178637
 C         0.991449        -0.089688         0.892812
 C         0.024169        -0.286278        -0.243413
 C         1.828195        -1.341535         1.295439
 C         2.765446        -0.307932         1.983407
 O         4.036193        -0.525962         2.514510
 H         4.016708         2.177918         0.976388
 H         3.734740         1.288681        -0.432019
 H         2.778746         2.466776        -0.296837
 H         2.227665         1.480509         3.369245
 H        -0.555682        -1.168752         0.113984
 H        -0.773652         0.455643        -0.340822
 H         0.650424        -0.544744        -1.108704
 H         1.252146        -1.957124         1.928558
 H         2.186131        -1.864464         0.434001
 H         3.934497        -0.851845         3.447347
