19
Iteration:  4596
 C         2.921934         1.751585         0.182115
 C         2.351392         0.753308         1.146952
 C         1.907742         0.880921         2.549278
 O         0.562107         0.440979         2.215152
 C         1.077442        -0.067305         0.865313
 C         0.106825        -0.155958        -0.269049
 C         1.726286        -1.321152         1.349025
 C         2.770196        -0.373771         2.123476
 O         4.058886        -0.689067         2.527059
 H         2.349874         1.803030        -0.788296
 H         3.057981         2.826518         0.545564
 H         3.859170         1.320446        -0.057629
 H         2.202207         1.621059         3.311231
 H        -0.726558        -0.789061         0.052701
 H        -0.069736         0.865631        -0.663306
 H         0.712229        -0.679713        -1.083454
 H         1.313270        -2.143345         2.020913
 H         2.439341        -1.718961         0.645727
 H         3.954033        -0.818624         3.486731
