19
Iteration:  3600
 C         2.928216         1.886702         0.204962
 C         2.387124         0.665603         1.001842
 C         1.878824         0.873362         2.408974
 O         0.549287         0.550809         2.158658
 C         1.095912        -0.118743         0.928400
 C         0.160629        -0.224435        -0.241469
 C         1.813424        -1.496571         1.471573
 C         2.729208        -0.361651         2.045402
 O         4.020904        -0.589439         2.659346
 H         4.069384         2.144043         0.563554
 H         2.922011         1.643740        -0.885146
 H         2.215388         2.700275         0.311581
 H         2.239005         1.511245         3.228408
 H        -0.477489        -0.999940        -0.166991
 H        -0.476836         0.696043        -0.112069
 H         0.625667        -0.265920        -1.214598
 H         1.183569        -2.267362         1.996031
 H         2.256678        -2.197619         0.606298
 H         3.773634        -1.102423         3.458429
