19
Iteration:  1575charge 0 multiplicity 1
 C         2.990666         1.745070         0.258084
 C         2.390245         0.770388         1.184447
 C         1.807436         0.773893         2.570881
 O         0.490406         0.420180         2.122168
 C         1.094037        -0.110325         0.939445
 C         0.095123        -0.145432        -0.296428
 C         1.885337        -1.337271         1.274337
 C         2.719929        -0.417383         2.064334
 O         4.048682        -0.555857         2.667171
 H         3.945344         2.124021         0.740098
 H         3.082562         1.425695        -0.763216
 H         2.166400         2.604758         0.193704
 H         2.055285         1.040292         3.532713
 H        -0.370856        -1.171497        -0.243251
 H        -0.665525         0.624819        -0.359557
 H         0.536143        -0.307212        -1.258234
 H         1.280797        -2.097076         1.814675
 H         2.298345        -1.582540         0.308247
 H         4.622093         0.089779         2.185065
