19
Iteration:  4032
 C         2.950914         1.683601         0.061068
 C         2.420396         0.755398         1.060187
 C         1.919370         0.700097         2.485488
 O         0.586013         0.469635         2.262124
 C         1.088894        -0.129625         0.992602
 C         0.098721         0.050373        -0.131861
 C         1.774325        -1.409295         1.335077
 C         2.733111        -0.379499         2.002786
 O         3.978859        -0.614049         2.603721
 H         3.781940         1.286913        -0.465490
 H         2.085569         1.841081        -0.542288
 H         3.359485         2.709109         0.477882
 H         2.307243         1.509076         3.104231
 H        -0.970310        -0.190843         0.312799
 H         0.205359         1.135519        -0.374172
 H         0.326529        -0.436369        -1.182522
 H         1.154888        -2.230188         1.824917
 H         2.459526        -1.725874         0.533825
 H         3.795847        -0.914679         3.507760
