19
Iteration:  4720
 C         3.188699         1.526118         0.176081
 C         2.303978         0.818227         1.124580
 C         1.785552         0.772464         2.589978
 O         0.426866         0.264223         2.228938
 C         1.056091        -0.087288         0.938707
 C         0.042208        -0.053316        -0.289902
 C         1.779304        -1.389338         1.381136
 C         2.754364        -0.259125         2.124649
 O         4.128424        -0.374583         2.446579
 H         3.271087         2.548480         0.370302
 H         4.114388         1.122276         0.380686
 H         2.978487         1.345565        -0.927780
 H         1.894641         1.420995         3.474930
 H        -0.887987        -0.546901        -0.046190
 H        -0.108891         1.046261        -0.679371
 H         0.519164        -0.537983        -1.112850
 H         1.114870        -2.105369         1.797884
 H         2.477401        -1.905427         0.714371
 H         4.185098        -0.620234         3.387663
