19
Iteration:   149charge 0 multiplicity 1
 C         2.838926         1.953413         0.448993
 C         2.189539         0.951742         1.275689
 C         1.807980         0.594390         2.673405
 O         0.483663        -0.075086         2.272255
 C         1.084529        -0.107412         0.895667
 C         0.312486         0.190968        -0.340699
 C         1.933293        -1.374931         1.125700
 C         2.797154        -0.330955         1.982878
 O         3.990291        -0.638570         2.463170
 H         3.823786         2.309180         0.854856
 H         3.074309         1.408225        -0.490248
 H         2.157808         2.774541         0.190828
 H         1.895030         1.247564         3.566678
 H        -0.719482        -0.193010        -0.444023
 H         0.333957         1.307526        -0.595052
 H         0.853003        -0.267235        -1.260619
 H         1.411059        -2.222299         1.709875
 H         2.718247        -1.591231         0.290031
 H         4.661600         0.023183         2.390890
