19
Iteration:  2883charge 0 multiplicity 1
 C         3.385491         1.734881         0.421780
 C         2.356390         0.854932         1.086542
 C         1.808306         0.822142         2.440689
 O         0.445709         0.363817         2.176240
 C         0.961041        -0.205041         0.855212
 C        -0.014301        -0.178559        -0.178278
 C         1.850500        -1.362781         1.358606
 C         2.705293        -0.358177         2.050678
 O         4.011202        -0.455421         2.418875
 H         4.143879         1.813135         1.105368
 H         3.671658         1.464989        -0.579621
 H         2.790234         2.647142         0.138535
 H         1.968307         1.545125         3.321536
 H        -0.857366        -0.892804         0.082040
 H        -0.660138         0.677963         0.001957
 H         0.372844        -0.472214        -1.192304
 H         1.229920        -2.176855         2.089003
 H         2.415582        -1.946273         0.604913
 H         4.346607        -0.947833         3.183644
