19
Iteration:  1897charge 0 multiplicity 1
 C         3.036032         1.888320         0.275551
 C         2.238403         0.887230         1.055978
 C         1.795927         0.824942         2.546178
 O         0.478693         0.232982         2.170481
 C         1.084389        -0.105611         0.847712
 C         0.014881        -0.125414        -0.270257
 C         2.076001        -1.387296         1.392902
 C         2.813458        -0.273484         2.011965
 O         3.989154        -0.730629         2.622806
 H         3.823558         2.346238         0.878760
 H         3.461438         1.418715        -0.642190
 H         2.402961         2.737438        -0.065902
 H         1.720177         1.301743         3.449393
 H        -0.943114        -0.421813         0.169695
 H        -0.051334         0.933177        -0.722847
 H         0.268417        -0.793538        -1.118841
 H         1.419061        -2.082099         1.963344
 H         2.641812        -2.017675         0.668156
 H         4.429056        -0.046347         3.117540
