19
Iteration:   366
 C         2.917707         1.915009         0.358944
 C         2.316379         0.836318         1.225482
 C         1.754315         0.506798         2.613678
 O         0.491234         0.249891         2.088521
 C         1.107697        -0.124540         0.865672
 C         0.025133         0.053029        -0.217190
 C         2.047558        -1.314434         1.064948
 C         2.823931        -0.435159         2.027711
 O         4.022781        -0.582681         2.715655
 H         3.808947         2.403979         0.867593
 H         3.122920         1.781208        -0.672938
 H         2.066672         2.790169         0.366775
 H         1.971964         0.973741         3.562458
 H        -0.922436        -0.364212        -0.020147
 H        -0.279550         1.138364        -0.120507
 H         0.386203        -0.031536        -1.279748
 H         1.596668        -2.288941         1.369960
 H         2.630232        -1.461418         0.195842
 H         4.848466        -0.945182         2.311024
