19
Iteration:  2085
 C         3.070988         1.791031         0.358129
 C         2.386336         0.774635         1.133118
 C         1.741364         0.762286         2.456111
 O         0.475524         0.353919         2.086944
 C         1.071400        -0.191394         0.802172
 C        -0.036569        -0.173638        -0.157534
 C         1.989832        -1.295332         1.271079
 C         2.812391        -0.274220         2.003322
 O         4.041326        -0.610200         2.655366
 H         3.796743         2.309020         0.894794
 H         3.536441         1.364638        -0.602720
 H         2.347932         2.490509         0.064586
 H         1.620991         1.436875         3.421240
 H        -1.021169        -0.508071         0.271603
 H         0.017808         0.888577        -0.334939
 H         0.143468        -0.715408        -1.113770
 H         1.475899        -2.086596         1.887374
 H         2.524086        -1.852430         0.557808
 H         4.230204        -0.025202         3.384397
