19
Iteration:  4913charge 0 multiplicity 1
 C         3.110021         1.491324         0.150172
 C         2.245245         0.768040         1.200492
 C         1.708348         0.779412         2.616468
 O         0.405352         0.423342         2.217388
 C         1.078301        -0.159097         0.883493
 C         0.170291        -0.128655        -0.312786
 C         1.938839        -1.364758         1.337066
 C         2.752305        -0.315998         2.068776
 O         4.077530        -0.284038         2.569198
 H         3.344178         0.735122        -0.649439
 H         2.629631         2.302977        -0.524692
 H         4.011644         1.757632         0.711977
 H         1.974499         1.329968         3.513779
 H        -0.845950        -0.634095        -0.067794
 H        -0.058355         1.005710        -0.625248
 H         0.676277        -0.704567        -1.145595
 H         1.406939        -2.205255         1.799169
 H         2.327219        -1.816589         0.467173
 H         4.131505        -0.898186         3.327346
