19
Iteration:  2412charge 0 multiplicity 1
 C         3.106620         1.732106         0.207605
 C         2.315157         0.754694         1.101225
 C         1.786175         0.709443         2.549435
 O         0.478237         0.350224         2.219402
 C         1.019158        -0.129756         0.939869
 C         0.084958        -0.013836        -0.294620
 C         1.960105        -1.409948         1.333650
 C         2.725991        -0.344718         2.056086
 O         4.029833        -0.441560         2.582432
 H         3.912684         2.226520         0.693111
 H         3.566229         1.160268        -0.581193
 H         2.315118         2.375283        -0.329825
 H         2.035250         1.169652         3.498584
 H        -0.807386        -0.594794        -0.088515
 H        -0.211610         0.981979        -0.544959
 H         0.453780        -0.499581        -1.189043
 H         1.312643        -2.231531         1.908518
 H         2.535287        -1.719191         0.473368
 H         4.147584        -1.048325         3.325507
