19
Iteration:  2007
 C         3.018291         1.738040         0.252242
 C         2.346714         0.729560         1.157083
 C         1.720182         0.737841         2.588275
 O         0.343906         0.405526         2.086881
 C         1.075975        -0.201426         0.869855
 C         0.164945        -0.084110        -0.245923
 C         1.913321        -1.357889         1.389091
 C         2.777717        -0.287557         2.170744
 O         4.136435        -0.492787         2.461460
 H         3.871270         2.082120         0.800458
 H         3.388207         1.299862        -0.684584
 H         2.456181         2.678584         0.176792
 H         1.784335         1.337021         3.591142
 H        -0.536074        -0.936804        -0.172137
 H        -0.400922         0.876472        -0.336091
 H         0.813512        -0.059923        -1.145901
 H         1.435141        -2.158330         2.052612
 H         2.559349        -1.698822         0.585241
 H         4.102553        -1.384246         2.888602
