19
Iteration:  1547charge 0 multiplicity 1
 C         3.033928         1.866709         0.234310
 C         2.220103         0.830848         1.077229
 C         1.794257         0.764547         2.495918
 O         0.442215         0.317670         2.238044
 C         1.073945        -0.156717         0.950237
 C         0.162692        -0.089271        -0.300503
 C         1.895582        -1.384505         1.382546
 C         2.774612        -0.342193         2.051800
 O         4.051973        -0.569072         2.642319
 H         3.896560         2.116645         0.866938
 H         3.356204         1.499871        -0.770200
 H         2.465229         2.719655         0.010680
 H         2.096663         1.553501         3.273414
 H        -0.253660        -1.083679        -0.503360
 H        -0.583774         0.717955        -0.409413
 H         0.822254        -0.086808        -1.229924
 H         1.382936        -2.051674         2.075184
 H         2.389140        -1.968405         0.525902
 H         4.421281        -1.337124         2.100239
