19
Iteration:  2072charge 0 multiplicity 1
 C         3.152088         1.845916         0.325282
 C         2.334679         0.864378         1.117479
 C         1.765624         0.780287         2.498305
 O         0.416499         0.288857         2.125684
 C         1.033749        -0.208263         0.901895
 C        -0.009481        -0.131472        -0.238383
 C         1.974958        -1.415519         1.289826
 C         2.820288        -0.336350         2.049396
 O         4.036690        -0.560548         2.609571
 H         3.984212         2.230604         0.894358
 H         3.660528         1.294252        -0.459354
 H         2.525498         2.601541        -0.236541
 H         2.124063         1.603851         3.252943
 H        -0.966847        -0.417382         0.254865
 H        -0.260144         0.877352        -0.600132
 H         0.141970        -0.817785        -1.095302
 H         1.520780        -2.283668         1.805084
 H         2.508728        -1.616243         0.379259
 H         4.013231         0.007176         3.424840
