19
Iteration:  4554charge 0 multiplicity 1
 C         3.169067         1.532475         0.215607
 C         2.248824         0.813590         1.082205
 C         1.853355         0.776095         2.566608
 O         0.433519         0.352323         2.215412
 C         0.957386        -0.129433         0.991703
 C         0.069656         0.027356        -0.246968
 C         1.866941        -1.433807         1.391244
 C         2.754798        -0.329179         1.992561
 O         4.135896        -0.430069         2.491049
 H         2.696837         1.538289        -0.765196
 H         3.338269         2.596699         0.449698
 H         4.177228         1.094385         0.102424
 H         2.039409         1.308115         3.506527
 H        -0.949154        -0.255887         0.044745
 H         0.004295         1.162601        -0.537585
 H         0.319844        -0.562890        -1.169797
 H         1.261042        -2.066775         1.954229
 H         2.233148        -1.908179         0.518147
 H         4.095984        -0.814597         3.388123
