19
Iteration:   193
 C         2.910510         1.975522         0.613617
 C         2.347786         0.837946         1.290883
 C         1.764325         0.576378         2.641151
 O         0.488578         0.201530         2.056124
 C         1.090046        -0.114654         0.821794
 C         0.058682        -0.026248        -0.184397
 C         2.045856        -1.324204         0.945222
 C         2.801348        -0.441829         1.968036
 O         4.018485        -0.529334         2.618866
 H         3.809142         2.416390         1.110076
 H         3.236086         1.697879        -0.383243
 H         2.200376         2.782803         0.520295
 H         1.975623         0.965360         3.577849
 H        -0.750689        -0.584805         0.280986
 H        -0.240063         1.058231        -0.334849
 H         0.187085        -0.520464        -1.210032
 H         1.408032        -2.173164         1.353781
 H         2.613968        -1.527774        -0.037201
 H         4.593039        -0.744226         1.881709
