19
Iteration:  4571
 C         3.111790         1.652373         0.089434
 C         2.381288         0.781378         1.194109
 C         1.751787         0.665308         2.583818
 O         0.425256         0.469567         2.236957
 C         0.996799        -0.091934         0.979858
 C         0.131340        -0.049215        -0.196499
 C         1.838451        -1.358614         1.378021
 C         2.821972        -0.380949         1.984863
 O         4.033893        -0.519334         2.453845
 H         2.598614         1.744903        -0.929645
 H         3.194344         2.735887         0.428623
 H         4.058712         1.140229        -0.062106
 H         1.953507         1.300817         3.446725
 H        -0.892357        -0.460652         0.062643
 H         0.289862         0.880522        -0.572644
 H         0.680638        -0.688839        -0.891422
 H         1.462492        -2.174946         2.195551
 H         2.272974        -1.754115         0.392622
 H         3.997142        -0.614404         3.423516
