19
Iteration:  4978
 C         3.110214         1.753310         0.286302
 C         2.386347         0.713808         1.017749
 C         1.740576         0.836651         2.452138
 O         0.442788         0.445751         2.052383
 C         1.036159        -0.191528         0.911684
 C         0.030953        -0.254614        -0.183999
 C         1.897885        -1.425673         1.472613
 C         2.856484        -0.294293         2.036943
 O         4.051953        -0.460418         2.635710
 H         2.622116         1.977104        -0.699747
 H         3.193127         2.758896         0.831746
 H         4.103559         1.404459         0.066813
 H         1.891726         1.744235         3.020618
 H        -0.917627        -0.932907        -0.153919
 H        -0.452110         0.757314        -0.611116
 H         0.577442        -0.482593        -1.139633
 H         1.560883        -2.180985         2.204462
 H         2.245964        -2.038457         0.659614
 H         3.925676        -0.493349         3.598439
