19
Iteration:  1568charge 0 multiplicity 1
 C         2.967304         1.756725         0.302084
 C         2.383997         0.735308         1.187294
 C         1.796490         0.776421         2.561433
 O         0.520080         0.419000         2.184532
 C         1.092159        -0.101114         0.920222
 C         0.113230        -0.204717        -0.355851
 C         1.854337        -1.334236         1.294110
 C         2.785968        -0.337603         2.072462
 O         3.972889        -0.550469         2.629221
 H         3.963963         2.158816         0.630292
 H         3.112073         1.339833        -0.700791
 H         2.277090         2.584223         0.155083
 H         2.142717         1.147583         3.540617
 H        -0.538420        -1.092323        -0.380038
 H        -0.524091         0.680537        -0.206413
 H         0.541348        -0.073569        -1.399863
 H         1.426553        -2.191227         1.802923
 H         2.489046        -1.756531         0.428585
 H         4.664723        -0.254221         2.051342
