19
Iteration:  2486
 C         3.236235         1.767391         0.417466
 C         2.316639         0.823385         1.089915
 C         1.832319         0.837951         2.481374
 O         0.444711         0.358401         2.200009
 C         1.004416        -0.105730         0.873830
 C         0.012637        -0.264545        -0.217577
 C         1.787562        -1.336003         1.312249
 C         2.780235        -0.356560         1.939644
 O         4.057875        -0.490113         2.500437
 H         3.982474         1.711943         1.162073
 H         3.735708         1.234075        -0.412574
 H         2.899551         2.767086         0.168805
 H         2.017161         1.321557         3.432403
 H        -0.736619        -1.090400        -0.009720
 H        -0.540469         0.686789        -0.335336
 H         0.519407        -0.477260        -1.232701
 H         1.369083        -2.002528         1.969037
 H         2.344229        -1.725210         0.534433
 H         4.091181        -0.774036         3.455021
