19
Iteration:  1925
 C         2.957269         1.861040         0.252042
 C         2.389368         0.752704         1.099514
 C         1.783136         0.818906         2.523205
 O         0.450347         0.355091         2.133863
 C         1.111283        -0.161869         0.865243
 C         0.070614        -0.150861        -0.216684
 C         1.978767        -1.313327         1.283783
 C         2.827107        -0.354752         2.071669
 O         4.022933        -0.679628         2.664787
 H         3.842017         2.300972         0.783514
 H         3.287717         1.568076        -0.757173
 H         2.157726         2.606186        -0.001015
 H         1.691936         1.369286         3.512790
 H        -0.827885        -0.737951         0.041005
 H        -0.199236         0.882590        -0.144639
 H         0.329346        -0.542130        -1.210800
 H         1.415016        -2.196135         1.546254
 H         2.489104        -1.598978         0.346295
 H         4.203502         0.036674         3.272393
