19
Iteration:  3518
 C         3.202742         1.515675         0.235536
 C         2.272007         0.806532         1.157631
 C         1.682262         0.825361         2.541552
 O         0.433839         0.324900         2.205114
 C         1.009978        -0.138546         0.960458
 C         0.033736        -0.108529        -0.323767
 C         1.952302        -1.326177         1.331509
 C         2.757384        -0.270412         2.120710
 O         4.117533        -0.439127         2.475840
 H         4.176082         1.390930         0.593370
 H         3.257376         1.190283        -0.831819
 H         3.126812         2.719492         0.329559
 H         1.893059         1.497113         3.311081
 H        -0.963787        -0.560817         0.126555
 H        -0.198201         0.839787        -0.696906
 H         0.315188        -0.739891        -1.213442
 H         1.415844        -2.154108         1.960064
 H         2.550463        -1.613659         0.514121
 H         4.045049        -0.456023         3.438156
