19
Iteration:  3767
 C         3.071504         1.748479         0.210455
 C         2.363344         0.831531         1.073855
 C         1.913092         0.734966         2.512145
 O         0.476038         0.563428         2.239410
 C         1.001505        -0.047555         0.921611
 C         0.106985        -0.249043        -0.266504
 C         1.716597        -1.352852         1.350443
 C         2.767576        -0.377502         2.038234
 O         4.073418        -0.628291         2.564278
 H         2.661401         2.802905         0.233360
 H         4.161675         1.939628         0.331829
 H         3.013192         1.344569        -0.810795
 H         2.197860         1.474482         3.360411
 H        -0.371787        -1.092343         0.061381
 H        -0.576578         0.462404        -0.411625
 H         0.768978        -0.555942        -1.083545
 H         1.293654        -2.137447         2.044137
 H         2.134266        -1.941664         0.524526
 H         4.005861        -0.777840         3.518141
