19
Iteration:  1173charge 0 multiplicity 1
 C         2.958202         2.036557         0.409105
 C         2.346932         0.806080         1.138063
 C         1.726013         0.645417         2.570154
 O         0.378796         0.271625         2.158224
 C         1.097099        -0.119850         0.800247
 C         0.155146        -0.076910        -0.263587
 C         1.972631        -1.419370         1.208768
 C         2.809785        -0.336190         2.057409
 O         4.103685        -0.598423         2.605192
 H         3.780699         2.491029         0.995976
 H         3.243576         1.822909        -0.630606
 H         2.193209         2.717816         0.335850
 H         1.892459         1.351747         3.331637
 H        -0.529583        -0.925566        -0.138911
 H        -0.391112         0.878165        -0.164321
 H         0.595698        -0.140263        -1.260126
 H         1.333910        -2.063104         1.805554
 H         2.567281        -1.881234         0.426897
 H         4.173575        -1.526706         2.752772
