19
Iteration:  2255
 C         3.216221         1.670333         0.324907
 C         2.275109         0.897367         1.093974
 C         1.749648         0.750724         2.561511
 O         0.401111         0.351305         2.094415
 C         1.104124        -0.133579         0.887291
 C        -0.063914        -0.128588        -0.215338
 C         1.977798        -1.410809         1.258331
 C         2.767892        -0.339452         2.112420
 O         4.080756        -0.463180         2.552862
 H         4.046955         2.119302         0.918478
 H         3.780635         1.111204        -0.419942
 H         2.549835         2.498387        -0.189225
 H         1.863260         1.131299         3.587216
 H        -0.887726        -0.690275         0.295403
 H        -0.498018         0.832563        -0.648896
 H         0.239847        -0.774956        -1.098903
 H         1.411896        -2.250618         1.812387
 H         2.579158        -1.620412         0.293818
 H         4.247476        -0.305675         3.521315
