19
Iteration:  3426charge 0 multiplicity 1
 C         2.960489         1.843857         0.162227
 C         2.485475         0.831996         1.088619
 C         1.831382         0.827477         2.455934
 O         0.487387         0.446541         2.164857
 C         1.067222        -0.136623         0.891385
 C         0.142432        -0.223269        -0.218053
 C         1.900918        -1.353651         1.459346
 C         2.750928        -0.275138         2.059944
 O         3.978730        -0.755501         2.582401
 H         3.404810         2.798390         0.710196
 H         3.729549         1.346113        -0.422221
 H         2.098956         2.167238        -0.387316
 H         1.989481         1.500303         3.327354
 H        -0.525311        -1.058174         0.045315
 H        -0.535272         0.791455        -0.247624
 H         0.569695        -0.293882        -1.270071
 H         1.244078        -1.987747         2.026622
 H         2.406029        -1.951118         0.625449
 H         3.867090        -0.619670         3.550866
