19
Iteration:  1046charge 0 multiplicity 1
 C         3.030332         1.993857         0.569820
 C         2.195574         0.812737         1.152204
 C         1.790724         0.644490         2.541904
 O         0.449765         0.198562         2.240634
 C         1.023295        -0.153272         0.861602
 C         0.207589        -0.073335        -0.357885
 C         1.963001        -1.368988         1.197255
 C         2.815106        -0.359737         1.912085
 O         4.028903        -0.583119         2.516047
 H         3.808500         2.425030         1.240399
 H         3.475159         1.827933        -0.400927
 H         2.289548         2.826315         0.578042
 H         1.976464         1.039108         3.515386
 H        -0.769106        -0.480230         0.090424
 H        -0.120036         0.944252        -0.599521
 H         0.483696        -0.594900        -1.249593
 H         1.513852        -2.258170         1.619966
 H         2.493663        -1.836412         0.299237
 H         4.247343         0.225153         2.982689
