19
Iteration:  1525
 C         3.020144         1.880688         0.267610
 C         2.381575         0.820010         1.098486
 C         1.794504         0.775741         2.513448
 O         0.444424         0.266869         2.202606
 C         1.038867        -0.223208         0.931384
 C         0.146332        -0.099501        -0.270574
 C         1.873315        -1.330451         1.434384
 C         2.773745        -0.301578         1.937706
 O         4.064299        -0.563297         2.577485
 H         3.849899         2.331806         0.831579
 H         3.397196         1.468966        -0.693531
 H         2.271231         2.561353        -0.019968
 H         1.761313         1.468262         3.399561
 H        -0.544509        -0.921521        -0.520576
 H        -0.318128         0.899318        -0.169235
 H         0.805857        -0.122090        -1.198708
 H         1.340453        -1.980681         2.111150
 H         2.409910        -1.873326         0.568140
 H         3.914705        -1.422145         2.973558
