19
Iteration:  2245charge 0 multiplicity 1
 C         3.226354         1.633322         0.290078
 C         2.251826         0.828632         1.153207
 C         1.738198         0.726020         2.546943
 O         0.458547         0.306642         2.197213
 C         1.064928        -0.144517         0.802910
 C         0.038411        -0.161198        -0.217595
 C         1.868612        -1.318620         1.234725
 C         2.756035        -0.258418         2.055746
 O         4.089082        -0.414338         2.575166
 H         3.869435         2.153691         0.991092
 H         3.730763         1.114934        -0.501414
 H         2.714404         2.559082        -0.272202
 H         2.032016         1.228490         3.493348
 H        -0.815796        -0.623043         0.270824
 H        -0.187129         0.895680        -0.412874
 H         0.199710        -0.736066        -1.146131
 H         1.347989        -2.247551         1.607520
 H         2.484024        -1.736165         0.414132
 H         3.897297        -0.615309         3.513375
