19
Iteration:  1877charge 0 multiplicity 1
 C         3.040184         1.879477         0.341282
 C         2.365625         0.833708         1.141582
 C         1.816167         0.681902         2.516855
 O         0.480605         0.288668         2.198517
 C         0.991741        -0.148968         0.854438
 C         0.113498        -0.165239        -0.276118
 C         1.886381        -1.332751         1.316243
 C         2.792076        -0.307171         2.013306
 O         4.016511        -0.588704         2.581030
 H         3.838483         2.404980         0.847434
 H         3.521214         1.447984        -0.659561
 H         2.333168         2.548737        -0.081940
 H         2.087986         1.367276         3.328003
 H        -0.908252        -0.363229         0.043132
 H         0.154686         0.838381        -0.727844
 H         0.326222        -1.019446        -0.890532
 H         1.418799        -2.147024         1.920220
 H         2.259534        -1.833909         0.446319
 H         4.312152         0.185610         3.123260
