19
Iteration:  4339
 C         3.275654         1.566890         0.191336
 C         2.395542         0.801117         1.150044
 C         1.831101         0.877511         2.561492
 O         0.494598         0.397792         2.214740
 C         1.012083        -0.083040         0.943383
 C         0.000295        -0.067347        -0.046627
 C         1.839084        -1.333110         1.292313
 C         2.676814        -0.360829         2.018320
 O         3.965624        -0.568958         2.354578
 H         4.267452         1.117148         0.293996
 H         2.997170         1.541912        -0.833823
 H         3.588214         2.620804         0.636709
 H         1.779205         1.433334         3.498739
 H        -0.682313        -0.869798         0.340417
 H        -0.475905         0.972072        -0.137439
 H         0.240013        -0.358135        -1.045553
 H         1.408249        -2.235466         1.882152
 H         2.296459        -1.742610         0.350579
 H         4.214330        -0.621652         3.284682
