19
Iteration:  4175
 C         3.058220         1.686539         0.164131
 C         2.405254         0.690274         1.063802
 C         1.943311         0.788261         2.474021
 O         0.559324         0.403039         2.220466
 C         0.997238        -0.072407         0.934819
 C        -0.083100         0.130504        -0.135871
 C         1.826327        -1.422648         1.333977
 C         2.778572        -0.369289         2.102526
 O         4.079907        -0.672374         2.520871
 H         3.413864         2.564036         0.720764
 H         3.817999         1.191102        -0.439544
 H         2.266465         2.155998        -0.574244
 H         2.202271         1.589453         3.155311
 H        -1.042622        -0.378597         0.354072
 H        -0.247827         1.301277        -0.220639
 H         0.228458        -0.309508        -1.154544
 H         1.173479        -2.078273         1.871663
 H         2.154079        -1.954294         0.453804
 H         4.073467        -1.023307         3.433058
