19
Iteration:  4782charge 0 multiplicity 1
 C         3.071018         1.763465         0.151877
 C         2.432251         0.832972         1.133805
 C         1.831734         0.865815         2.457938
 O         0.472348         0.350093         2.189835
 C         1.027379        -0.133013         0.873972
 C         0.011094        -0.229023        -0.258275
 C         1.849504        -1.359361         1.444027
 C         2.845161        -0.308721         2.068080
 O         4.036101        -0.588264         2.594336
 H         3.799464         2.435819         0.734637
 H         3.650238         1.233227        -0.716944
 H         2.362919         2.464751        -0.275567
 H         1.999814         1.647262         3.211648
 H        -0.969588        -0.650035        -0.023647
 H        -0.229524         0.823933        -0.457573
 H         0.405580        -0.676850        -1.178461
 H         1.158397        -1.930747         2.195005
 H         2.365378        -1.958691         0.695908
 H         3.877029        -0.836183         3.521000
