19
Iteration:  3685charge 0 multiplicity 1
 C         3.195595         1.542233         0.221916
 C         2.325624         0.749277         1.156451
 C         1.805537         0.759889         2.490923
 O         0.440835         0.395234         2.227509
 C         1.010334        -0.122646         0.885629
 C        -0.028637        -0.044818        -0.225972
 C         1.874107        -1.469672         1.339915
 C         2.745049        -0.363773         2.054254
 O         4.087828        -0.312799         2.547286
 H         3.464913         2.533647         0.534654
 H         4.068177         0.916474         0.217469
 H         2.824912         1.770708        -0.772725
 H         2.208139         1.425839         3.227075
 H        -1.064920        -0.345246         0.044477
 H         0.057754         1.042068        -0.642743
 H         0.380266        -0.538973        -1.065687
 H         1.363634        -2.194578         1.919675
 H         2.293718        -1.838594         0.377980
 H         4.176816        -0.760230         3.398707
