19
Iteration:    27charge 0 multiplicity 1
 C         2.952536         2.101444         0.640418
 C         2.394844         0.866684         1.245808
 C         1.739961         0.548896         2.594997
 O         0.482552         0.288849         2.115720
 C         1.110198        -0.028762         0.808395
 C        -0.004073        -0.210432        -0.209000
 C         2.078898        -1.261903         0.991203
 C         2.818106        -0.462974         1.987830
 O         4.015484        -0.706866         2.509435
 H         3.717810         2.534728         1.282961
 H         3.389495         1.799304        -0.291708
 H         2.130722         2.916729         0.401951
 H         1.885894         1.138054         3.514661
 H        -0.329707        -1.309807        -0.245381
 H        -0.698527         0.553476         0.172958
 H         0.153884         0.042643        -1.258709
 H         1.381852        -2.223083         1.089470
 H         2.619064        -1.275781         0.012438
 H         4.068452        -0.208664         3.308563
