19
Iteration:  1356
 C         2.968025         1.954561         0.328419
 C         2.240357         0.853642         1.102150
 C         1.817279         0.710347         2.533825
 O         0.440477         0.276611         2.195080
 C         1.005369        -0.143656         0.864376
 C         0.191967        -0.087723        -0.316691
 C         1.945942        -1.411898         1.372763
 C         2.845801        -0.307766         2.056844
 O         3.998716        -0.664874         2.622110
 H         3.938494         2.237219         0.766575
 H         3.396417         1.513507        -0.530779
 H         2.373924         2.914997        -0.015512
 H         1.834788         1.512887         3.321642
 H        -0.268917        -1.067943        -0.532261
 H        -0.498257         0.776841        -0.117675
 H         0.816654         0.181574        -1.188359
 H         1.579143        -2.069024         2.265427
 H         2.370531        -1.952096         0.532770
 H         4.612596        -0.726077         1.842827
