19
Iteration:   887charge 0 multiplicity 1
 C         2.904385         1.870463         0.478057
 C         2.304304         0.799885         1.270616
 C         1.723856         0.605289         2.640480
 O         0.457730         0.136655         2.122738
 C         1.045134        -0.082967         0.881849
 C         0.162213         0.065355        -0.334047
 C         1.999151        -1.339204         1.099140
 C         2.793068        -0.351056         2.031095
 O         4.082146        -0.499458         2.572211
 H         3.615044         2.363643         1.138300
 H         3.368366         1.595108        -0.524664
 H         2.184430         2.684984         0.420023
 H         1.650408         0.885759         3.748596
 H        -0.514963        -0.706628        -0.185029
 H        -0.363067         1.004862        -0.455751
 H         0.800048        -0.148007        -1.218352
 H         1.603763        -2.226309         1.601009
 H         2.566374        -1.486662         0.233063
 H         4.631403        -1.052087         2.032315
