19
Iteration:  1110
 C         2.996518         1.935874         0.337682
 C         2.249402         0.885111         1.125561
 C         1.744231         0.645727         2.610374
 O         0.483559         0.101650         2.216417
 C         1.020267        -0.136743         0.964638
 C         0.195121         0.005370        -0.304297
 C         1.965248        -1.319160         1.165707
 C         2.762264        -0.299999         1.951695
 O         4.021091        -0.609328         2.696028
 H         3.782643         2.458193         0.959573
 H         3.470777         1.576085        -0.655257
 H         2.268313         2.714646         0.068767
 H         1.842275         1.112445         3.588166
 H        -0.457801        -0.832237        -0.534588
 H        -0.413444         0.889806        -0.263401
 H         0.899437         0.115184        -1.072919
 H         1.562030        -2.201988         1.625238
 H         2.496655        -1.621876         0.203169
 H         4.638855        -0.764450         1.990214
