19
Iteration:   515
 C         2.956009         1.824163         0.272665
 C         2.284582         0.924434         1.188481
 C         1.736514         0.616615         2.629944
 O         0.506348         0.154133         2.224264
 C         1.152664        -0.094360         0.793876
 C         0.062827         0.125841        -0.233415
 C         2.057156        -1.321562         1.073621
 C         2.784519        -0.301736         2.027444
 O         3.962479        -0.688172         2.765047
 H         3.836407         2.304777         0.664494
 H         3.040689         1.340186        -0.801047
 H         2.342162         2.669417         0.098069
 H         1.762124         1.148702         3.647820
 H        -0.607680        -0.674034         0.160425
 H        -0.379654         1.118744        -0.383591
 H         0.381661        -0.260333        -1.194927
 H         1.728518        -2.352869         1.373254
 H         2.682693        -1.486956         0.169534
 H         4.665313        -0.625217         2.131442
