19
Iteration:  1018charge 0 multiplicity 1
 C         3.054970         2.138531         0.566317
 C         2.303518         0.893480         1.178420
 C         1.771822         0.613939         2.532200
 O         0.482039         0.144018         2.137539
 C         1.013346        -0.091518         0.844319
 C         0.064259        -0.150455        -0.312747
 C         1.974889        -1.329315         1.191939
 C         2.817099        -0.399051         1.983967
 O         4.012919        -0.659307         2.617599
 H         3.931583         2.562296         1.072912
 H         3.333724         1.945285        -0.514295
 H         2.254095         2.928643         0.458529
 H         1.804992         1.385894         3.422942
 H        -0.877474        -0.638225        -0.012324
 H        -0.195184         0.872780        -0.649160
 H         0.571294        -0.767286        -1.134565
 H         1.404853        -2.174985         1.714737
 H         2.489403        -1.816211         0.387034
 H         4.729697        -0.248194         2.074659
