19
Iteration:  3745charge 0 multiplicity 1
 C         3.188913         1.640511         0.227849
 C         2.341434         0.802948         1.066540
 C         1.808089         0.854040         2.525073
 O         0.493739         0.447336         2.211243
 C         1.005942        -0.081887         0.971164
 C        -0.015742        -0.232456        -0.240351
 C         1.824485        -1.324050         1.347042
 C         2.765548        -0.322569         2.016816
 O         4.053327        -0.570640         2.537814
 H         3.046822         2.688762         0.642921
 H         4.291920         1.505674         0.406515
 H         3.049872         1.574741        -0.871245
 H         2.251651         1.520557         3.339750
 H        -0.721394        -1.007618        -0.179601
 H        -0.532778         0.631341        -0.394910
 H         0.628624        -0.438859        -1.121218
 H         1.393051        -2.168907         2.016209
 H         2.187888        -1.772543         0.401784
 H         3.992198        -0.664842         3.514260
