19
Iteration:   378
 C         2.909738         1.997962         0.443275
 C         2.387986         0.823923         1.209919
 C         1.839258         0.588635         2.581849
 O         0.472891         0.267726         2.211022
 C         1.082825        -0.080425         0.825392
 C         0.082135        -0.018516        -0.231225
 C         1.968178        -1.363759         1.001320
 C         2.810273        -0.450481         1.968802
 O         3.974182        -0.585797         2.727812
 H         3.893806         2.372982         0.884658
 H         3.194518         1.504292        -0.480027
 H         2.145694         2.914079         0.270259
 H         1.816988         1.043481         3.610909
 H        -0.582681        -0.818204         0.033914
 H        -0.322952         1.024275        -0.322593
 H         0.449965        -0.435872        -1.234794
 H         1.562545        -2.344015         1.301940
 H         2.463095        -1.385789         0.034066
 H         4.626962        -0.831421         2.011710
