19
Iteration:  2273charge 0 multiplicity 1
 C         3.185532         1.754989         0.354280
 C         2.380397         0.781067         1.178697
 C         1.678912         0.754264         2.520046
 O         0.451716         0.364096         2.108658
 C         0.988670        -0.105452         0.831701
 C        -0.031020        -0.208310        -0.185790
 C         1.970798        -1.366901         1.304866
 C         2.784674        -0.292024         2.058534
 O         4.048577        -0.560381         2.526277
 H         4.116746         2.189863         0.915114
 H         3.720770         1.249883        -0.543236
 H         2.674724         2.524910        -0.025133
 H         1.918505         1.568273         3.160991
 H        -0.936412        -0.767118         0.227145
 H        -0.229463         0.897673        -0.390353
 H         0.203358        -0.687432        -1.149700
 H         1.648996        -2.230573         1.878667
 H         2.731004        -1.588068         0.438790
 H         4.013846         0.094642         3.287709
