19
Iteration:  4561
 C         3.140680         1.601886         0.157144
 C         2.308134         0.776141         1.127891
 C         1.795690         0.714688         2.612887
 O         0.422011         0.406221         2.204252
 C         0.994586        -0.129197         1.002835
 C         0.103921        -0.002470        -0.194814
 C         1.840759        -1.355615         1.388548
 C         2.755419        -0.359642         1.935210
 O         4.117275        -0.461769         2.479195
 H         2.650527         1.487020        -0.876489
 H         3.487590         2.672371         0.439389
 H         4.083225         1.113582         0.089255
 H         2.026225         1.321685         3.492394
 H        -1.016207        -0.174395        -0.209031
 H         0.018854         0.989753        -0.540617
 H         0.466959        -0.661693        -1.037626
 H         1.535158        -2.252745         2.155153
 H         2.278564        -1.914378         0.502694
 H         3.935910        -0.707053         3.403683
