19
Iteration:   335
 C         2.903395         1.904113         0.313096
 C         2.232268         0.874100         1.200516
 C         1.661763         0.639083         2.543136
 O         0.534496        -0.067656         2.245319
 C         1.146128        -0.174900         0.846860
 C         0.170570         0.303747        -0.242630
 C         1.996389        -1.406364         1.188072
 C         2.812835        -0.397742         1.980653
 O         4.003551        -0.549161         2.666648
 H         3.863771         2.340766         0.744237
 H         3.234586         1.600718        -0.683884
 H         2.303675         2.899477         0.150482
 H         1.809270         1.327341         3.393169
 H        -0.784642        -0.206295        -0.196968
 H         0.031279         1.412746        -0.033336
 H         0.408014         0.217838        -1.374641
 H         1.409458        -2.185729         1.695094
 H         2.640385        -1.669895         0.324161
 H         4.759448        -0.866915         2.156308
