19
Iteration:  3917
 C         3.328779         1.657759         0.289406
 C         2.413921         0.786968         1.129704
 C         1.817698         0.845239         2.514787
 O         0.491252         0.429072         2.146161
 C         0.995452        -0.154172         0.945101
 C        -0.026402        -0.168354        -0.104720
 C         1.739334        -1.414444         1.360684
 C         2.688658        -0.335733         2.061244
 O         4.030031        -0.471493         2.359922
 H         3.139847         1.744048        -0.810779
 H         3.461587         2.632188         0.780177
 H         4.268541         1.198131         0.300943
 H         2.069892         1.670185         3.199602
 H        -0.700112        -0.967787         0.237275
 H        -0.546074         0.872419         0.039392
 H         0.293748        -0.179747        -1.200983
 H         1.186641        -1.952653         2.029793
 H         2.265439        -1.968765         0.534315
 H         4.095601        -1.042309         3.140365
