19
Iteration:  4352charge 0 multiplicity 1
 C         3.243875         1.521821         0.189277
 C         2.309942         0.826707         1.115304
 C         1.804917         0.826032         2.556125
 O         0.507519         0.354691         2.242722
 C         1.066854        -0.016340         0.927303
 C        -0.073600        -0.047550        -0.149161
 C         1.807342        -1.305863         1.305924
 C         2.760452        -0.323884         2.108751
 O         4.089029        -0.625506         2.424166
 H         4.256407         1.064276         0.010591
 H         2.692346         1.650195        -0.797884
 H         3.222509         2.617001         0.464164
 H         2.115417         1.427100         3.411349
 H        -1.069343        -0.611944         0.152720
 H        -0.467163         1.015418        -0.336582
 H         0.407637        -0.475135        -1.069121
 H         1.088878        -2.017172         1.695633
 H         2.438022        -1.638800         0.465021
 H         4.104419        -0.541628         3.401886
