19
Iteration:   561
 C         2.907826         1.925961         0.373188
 C         2.323681         0.814052         1.176289
 C         1.804539         0.636265         2.585746
 O         0.450932         0.200504         2.243489
 C         1.069478        -0.092907         0.865186
 C         0.191681         0.037405        -0.298451
 C         1.995779        -1.357527         1.147504
 C         2.807215        -0.411064         1.954852
 O         3.962464        -0.550588         2.650052
 H         3.698052         2.491713         0.888106
 H         3.193099         1.621170        -0.693514
 H         2.200814         2.695029         0.191494
 H         2.190174         1.013339         3.592242
 H        -0.642047        -0.616658        -0.224069
 H        -0.116484         1.123423        -0.303909
 H         0.751050        -0.052350        -1.284455
 H         1.280976        -2.013593         1.756824
 H         2.575998        -2.007471         0.510095
 H         4.414875        -1.356172         2.336839
