19
Iteration:  1457charge 0 multiplicity 1
 C         3.104378         1.889080         0.256694
 C         2.225798         0.858138         1.114704
 C         1.788401         0.742257         2.537912
 O         0.523365         0.230372         2.192582
 C         1.030936        -0.154461         0.807218
 C         0.055825        -0.113416        -0.251830
 C         1.962661        -1.335109         1.349861
 C         2.795493        -0.297260         1.993822
 O         3.948654        -0.613035         2.685178
 H         3.817229         2.305188         1.033833
 H         3.590439         1.582393        -0.599295
 H         2.566103         2.811146        -0.038048
 H         2.067891         0.992935         3.502115
 H        -0.919082        -0.325066         0.305454
 H         0.010812         0.838731        -0.776092
 H         0.313807        -0.955384        -0.891925
 H         1.469556        -2.172331         1.867583
 H         2.541895        -1.713947         0.432505
 H         4.786307        -0.389540         2.135545
