19
Iteration:  4463charge 0 multiplicity 1
 C         3.099401         1.825490         0.212082
 C         2.368072         0.743812         1.034957
 C         1.876643         0.864644         2.481818
 O         0.574721         0.522155         2.255183
 C         1.046600        -0.043084         0.961516
 C         0.120417        -0.221075        -0.133334
 C         1.754959        -1.399052         1.329617
 C         2.752670        -0.349610         2.097923
 O         3.961672        -0.708885         2.452031
 H         3.343051         1.258332        -0.764735
 H         2.493594         2.778211        -0.130961
 H         3.969459         2.190354         0.675659
 H         2.058318         1.405082         3.406717
 H        -0.661405        -1.094216         0.025492
 H        -0.552669         0.640292        -0.284245
 H         0.703121        -0.412575        -1.134439
 H         0.990186        -2.050213         1.849430
 H         2.307216        -1.943197         0.531813
 H         3.913665        -0.904924         3.404497
