19
Iteration:  2631
 C         3.214422         1.733506         0.350881
 C         2.246816         0.793614         1.089517
 C         1.825234         0.761556         2.448809
 O         0.473816         0.318822         2.172723
 C         1.039629        -0.130021         0.851850
 C         0.037146        -0.093571        -0.216044
 C         1.924916        -1.327068         1.358425
 C         2.713978        -0.300032         2.058282
 O         4.023668        -0.547757         2.497070
 H         3.972872         2.180052         0.978303
 H         3.679450         1.077142        -0.479299
 H         2.610748         2.703820        -0.120176
 H         2.156792         1.424211         3.263730
 H        -0.846453        -0.708863         0.299050
 H        -0.468255         0.934118        -0.043647
 H         0.245362        -0.385408        -1.271307
 H         1.436815        -2.087239         2.056272
 H         2.496701        -1.946277         0.590346
 H         4.096172        -0.855357         3.410638
