19
Iteration:    23
 C         2.940562         2.092697         0.629676
 C         2.372452         0.861318         1.261773
 C         1.768430         0.576455         2.612619
 O         0.473355         0.278474         2.108835
 C         1.135834        -0.012663         0.796815
 C         0.028299        -0.167655        -0.185490
 C         2.074083        -1.337734         0.970348
 C         2.739919        -0.467520         1.997335
 O         4.033339        -0.674592         2.486661
 H         3.718359         2.541597         1.241520
 H         3.415256         1.857258        -0.319261
 H         2.188348         2.867066         0.427067
 H         1.863675         1.049900         3.554505
 H        -0.340472        -1.185924        -0.120120
 H        -0.808114         0.479190         0.091505
 H         0.291635         0.003644        -1.224162
 H         1.496107        -2.240578         1.050009
 H         2.661531        -1.399738         0.076831
 H         4.063255        -0.256448         3.400947
