19
Iteration:  2227charge 0 multiplicity 1
 C         3.194948         1.681271         0.280678
 C         2.336628         0.801936         1.118020
 C         1.792002         0.780411         2.500383
 O         0.466167         0.205525         2.233499
 C         1.020368        -0.074027         0.980787
 C         0.041921        -0.077304        -0.268840
 C         1.923224        -1.373797         1.275427
 C         2.774306        -0.347518         2.013611
 O         3.957074        -0.363803         2.580404
 H         4.013015         2.148424         0.779797
 H         3.652529         1.050829        -0.550481
 H         2.625197         2.411772        -0.283543
 H         1.903836         1.604268         3.293928
 H        -0.826976        -0.722401        -0.146546
 H        -0.221314         0.847095        -0.701951
 H         0.593258        -0.620965        -1.014321
 H         1.448540        -2.104979         1.880532
 H         2.328219        -1.770303         0.397232
 H         4.074163        -1.068914         3.238100
