19
Iteration:  4106
 C         3.317760         1.625520         0.343388
 C         2.310109         0.789698         1.092835
 C         1.946858         0.856601         2.558683
 O         0.491393         0.511933         2.299577
 C         0.998219        -0.071022         0.948016
 C        -0.030460        -0.188151        -0.171587
 C         1.720414        -1.302893         1.333682
 C         2.663989        -0.391418         2.058687
 O         4.026519        -0.601875         2.254772
 H         4.331769         1.338720         0.628681
 H         3.175546         1.328492        -0.696676
 H         3.155976         2.738686         0.415225
 H         2.064485         1.709690         3.267753
 H        -0.552993        -1.107926         0.079197
 H        -0.674705         0.646680        -0.329859
 H         0.642145        -0.413815        -1.081235
 H         1.255644        -2.020993         1.941736
 H         2.189381        -1.784588         0.518793
 H         4.365415        -0.879294         3.127615
