19
Iteration:    22charge 0 multiplicity 1
 C         2.935854         2.091363         0.628329
 C         2.365182         0.860417         1.265337
 C         1.775750         0.581137         2.612687
 O         0.470731         0.274646         2.107382
 C         1.141669        -0.010994         0.794845
 C         0.035654        -0.157417        -0.180171
 C         2.068513        -1.353514         0.965798
 C         2.723445        -0.465935         1.999240
 O         4.038152        -0.667282         2.483199
 H         3.729872         2.550891         1.242973
 H         3.436712         1.864248        -0.358328
 H         2.212488         2.838434         0.441091
 H         1.863676         1.043336         3.595567
 H        -0.343901        -1.152516        -0.087004
 H        -0.842905         0.465379         0.070665
 H         0.333568         0.000920        -1.232192
 H         1.535822        -2.244927         1.060387
 H         2.684174        -1.429230         0.077960
 H         4.066329        -0.277733         3.410147
