19
Iteration:  3296
 C         3.312079         1.585124         0.247494
 C         2.293194         0.747334         1.180690
 C         1.705683         0.753340         2.587390
 O         0.420334         0.383115         2.261881
 C         0.964815        -0.104102         0.913375
 C         0.114670        -0.149102        -0.227777
 C         1.935434        -1.357447         1.232368
 C         2.642850        -0.337445         2.026971
 O         4.055072        -0.296030         2.494410
 H         4.382781         1.490938         0.605043
 H         3.249307         1.123246        -0.717972
 H         3.041223         2.589719        -0.049748
 H         1.830727         1.332496         3.424934
 H        -0.834244        -0.475092         0.083630
 H         0.048906         0.731621        -0.721862
 H         0.530025        -1.032309        -0.700993
 H         1.369495        -2.219675         1.668564
 H         2.466884        -1.697427         0.283444
 H         4.043748        -0.945424         3.211961
