19
Iteration:  2612charge 0 multiplicity 1
 C         3.067297         1.775687         0.171777
 C         2.388966         0.773836         1.144685
 C         1.724028         0.794981         2.546660
 O         0.481102         0.335704         2.158766
 C         1.035648        -0.134946         0.898711
 C         0.032969        -0.014168        -0.219049
 C         1.841473        -1.394795         1.349804
 C         2.778521        -0.355560         2.041886
 O         4.153464        -0.610859         2.577053
 H         3.819973         2.227126         0.846816
 H         3.579083         1.233677        -0.529605
 H         2.443201         2.616051        -0.056557
 H         1.799521         1.450331         3.355951
 H        -0.918088        -0.532742        -0.102714
 H        -0.231764         1.032935        -0.436918
 H         0.500023        -0.425453        -1.116467
 H         1.289090        -2.355933         1.723695
 H         2.487035        -1.938696         0.532991
 H         4.023878        -0.321474         3.505042
