19
Iteration:  4773
 C         3.102519         1.729232         0.161085
 C         2.358853         0.831358         1.077452
 C         1.791337         0.807472         2.482265
 O         0.483180         0.420311         2.129593
 C         1.049936        -0.192804         0.971601
 C         0.041828        -0.167017        -0.212848
 C         1.876893        -1.422598         1.448818
 C         2.763273        -0.306173         1.989640
 O         4.057830        -0.521740         2.589442
 H         3.683331         2.429933         0.706743
 H         3.856669         1.268556        -0.463381
 H         2.426624         2.362831        -0.441560
 H         1.836677         1.350837         3.432286
 H        -0.887727        -0.502241         0.048289
 H        -0.052251         0.934724        -0.378061
 H         0.412712        -0.600614        -1.060809
 H         1.497120        -2.109256         2.292773
 H         2.242613        -2.018476         0.587301
 H         3.882101        -0.915192         3.461185
