19
Iteration:   203
 C         2.959639         2.037693         0.639505
 C         2.350055         0.804449         1.225155
 C         1.755635         0.536163         2.576995
 O         0.529944         0.243773         2.151603
 C         1.241097        -0.064158         0.747205
 C        -0.003577        -0.108862        -0.188836
 C         1.962795        -1.342112         0.985885
 C         2.741198        -0.441627         1.946449
 O         3.997285        -0.502310         2.611671
 H         3.755298         2.346391         1.347474
 H         3.313468         1.921927        -0.339539
 H         2.117525         2.777055         0.609986
 H         1.862722         0.877934         3.553535
 H        -0.828606        -0.644313         0.256783
 H        -0.462361         0.931950        -0.235519
 H         0.318832        -0.435733        -1.243727
 H         1.543695        -2.382147         1.233984
 H         2.553162        -1.461522         0.008420
 H         4.678337        -0.929581         2.120236
