19
Iteration:  3287
 C         4.553175        -0.408058         1.762459
 C         3.358498        -0.170262         0.845407
 C         2.169990        -1.140935         0.741800
 C         1.407451        -0.047894         0.033944
 C        -0.051895        -0.103780        -0.022125
 O         2.157764         0.112137        -1.233751
 C         3.257405         0.596002        -0.457443
 C         2.401941         0.946246         0.754581
 O         2.337885         2.030746         1.525895
 H         5.282525        -1.095471         1.497402
 H         5.085251         0.551102         1.979426
 H         4.102688        -0.914929         2.666162
 H         2.235330        -1.996984         0.138359
 H         1.915375        -1.283109         1.781012
 H        -0.448308        -0.509245         0.906248
 H        -0.501840         0.866039        -0.181704
 H        -0.166294        -0.746264        -0.945502
 H         3.924459         1.185946        -0.969948
 H         2.341123         2.861121         1.038081
