19
Iteration:  2698charge 0 multiplicity 1
 C         4.624557        -0.491466         1.617278
 C         3.357977        -0.135173         0.943555
 C         2.213639        -1.208177         0.897249
 C         1.404937        -0.083444         0.071931
 C        -0.061525         0.058210        -0.163318
 O         2.197047        -0.010051        -1.251001
 C         3.232474         0.656094        -0.445947
 C         2.474570         0.992636         0.749277
 O         2.218332         2.068421         1.591625
 H         5.270755        -0.981383         0.929876
 H         5.139222         0.405473         1.802601
 H         4.403918        -1.132208         2.467415
 H         2.355490        -2.014775         0.279291
 H         1.764302        -1.289241         1.820162
 H        -0.490107         0.049807         0.867867
 H        -0.344604         0.950000        -0.733269
 H        -0.428231        -0.852248        -0.789505
 H         4.217160         1.075084        -0.852072
 H         1.368408         2.650738         1.211788
