19
Iteration:  4422charge 0 multiplicity 1
 C         4.667620        -0.471651         1.605091
 C         3.280151        -0.212932         0.988238
 C         2.229329        -1.158152         0.802174
 C         1.425608        -0.109254         0.013133
 C        -0.062801        -0.050281        -0.103617
 O         2.168138         0.080011        -1.188093
 C         3.302223         0.686802        -0.465368
 C         2.420702         0.987980         0.753606
 O         2.175020         2.062441         1.571596
 H         5.110895        -1.228746         0.883976
 H         5.316078         0.459967         1.846045
 H         4.595299        -0.795045         2.693454
 H         2.355229        -2.125012         0.153813
 H         1.839281        -1.321860         1.847914
 H        -0.370471        -0.045281         0.995261
 H        -0.514830         0.887061        -0.483129
 H        -0.400645        -0.877452        -0.765945
 H         4.284045         1.010399        -0.964470
 H         1.994745         2.946808         1.031389
