19
Iteration:  2739charge 0 multiplicity 1
 C         4.659561        -0.512444         1.642395
 C         3.334223        -0.295374         0.938149
 C         2.119611        -1.193136         0.765234
 C         1.482537         0.003668         0.064126
 C        -0.028535        -0.008280         0.014248
 O         2.218582         0.095900        -1.270400
 C         3.284772         0.652357        -0.454403
 C         2.467267         0.954434         0.775410
 O         2.067951         2.114012         1.491759
 H         5.591764        -0.906993         1.114076
 H         5.015907         0.348084         2.150499
 H         4.525117        -1.111183         2.619090
 H         2.339984        -2.193166         0.240312
 H         1.761321        -1.322299         1.830332
 H        -0.499139         0.160972         0.937162
 H        -0.390244         0.761587        -0.640348
 H        -0.421025        -0.970522        -0.306497
 H         4.162326         1.104070        -0.925640
 H         2.347929         2.818929         0.982985
