19
Iteration:  2804
 C         4.631807        -0.316154         1.715811
 C         3.371296        -0.276062         0.866682
 C         2.169949        -1.213755         0.777891
 C         1.383192        -0.042232         0.063313
 C        -0.062553        -0.012730        -0.122788
 O         2.103806         0.139413        -1.187861
 C         3.287947         0.600771        -0.439963
 C         2.426205         0.930532         0.749039
 O         2.335250         2.004167         1.560249
 H         5.085452        -1.343495         1.567976
 H         5.191997         0.531232         1.518186
 H         4.267005        -0.125785         2.771060
 H         2.151983        -2.206748         0.229408
 H         1.736901        -1.604751         1.713591
 H        -0.607448        -0.238672         0.729222
 H        -0.305873         0.933834        -0.514116
 H        -0.146001        -0.748257        -0.880385
 H         4.113164         1.082404        -1.038767
 H         1.855470         2.638700         1.119231
