19
Iteration:  1958
 C         4.647372        -0.424963         1.643654
 C         3.362079        -0.304049         0.907068
 C         2.098206        -1.166779         0.785771
 C         1.424465        -0.041003         0.033294
 C        -0.062336        -0.061788        -0.029982
 O         2.196332         0.212737        -1.206892
 C         3.329239         0.611342        -0.344747
 C         2.380711         0.911645         0.789340
 O         2.228626         2.048729         1.463349
 H         5.332894        -0.886991         0.979162
 H         5.071844         0.599771         1.774864
 H         4.700256        -0.992228         2.605093
 H         2.094688        -2.058445         0.024505
 H         1.582674        -1.517580         1.728348
 H        -0.499319        -0.055444         0.923190
 H        -0.504648         0.699442        -0.724649
 H        -0.411359        -0.978216        -0.460188
 H         4.286522         0.939760        -0.814075
 H         2.247816         3.036481         0.941040
