19
Iteration:   835charge 0 multiplicity 1
 C         4.616111        -0.338828         1.532319
 C         3.302645        -0.222960         0.844626
 C         2.168809        -1.192188         0.776352
 C         1.439354        -0.018215         0.052819
 C        -0.035295         0.015307        -0.251927
 O         2.169145         0.026523        -1.151337
 C         3.228276         0.574193        -0.421940
 C         2.433820         1.050246         0.798052
 O         2.262974         1.977923         1.770278
 H         5.060549        -1.384536         1.343098
 H         5.359769         0.330433         1.272082
 H         4.373063        -0.287700         2.631764
 H         2.089872        -2.237721         0.358086
 H         1.705131        -1.137638         1.747493
 H        -0.691779        -0.174736         0.592840
 H        -0.272592         0.883170        -0.865877
 H        -0.222623        -0.763607        -0.967324
 H         4.170487         0.771151        -0.923068
 H         2.525831         2.778505         1.445393
