19
Iteration:   492charge 0 multiplicity 1
 C         4.649613        -0.442193         1.636126
 C         3.329027        -0.122171         0.882281
 C         2.126539        -1.103722         0.845152
 C         1.428727         0.001985         0.015755
 C        -0.026252        -0.013569        -0.250555
 O         2.190851         0.007789        -1.188928
 C         3.236234         0.550827        -0.494330
 C         2.377988         1.036287         0.751586
 O         2.281115         1.947547         1.738212
 H         5.094516        -1.372469         1.159511
 H         5.335627         0.385736         1.437973
 H         4.523969        -0.626507         2.745201
 H         2.275286        -2.144317         0.480313
 H         1.549768        -0.924758         1.810035
 H        -0.493662        -0.172846         0.773771
 H        -0.501225         0.819192        -0.786146
 H        -0.205948        -0.923408        -0.890736
 H         4.010787         1.077649        -1.086436
 H         2.255546         2.963271         1.432808
