19
Iteration:  3441
 C         4.614409        -0.395311         1.716134
 C         3.279503        -0.207644         0.929124
 C         2.198459        -1.221036         0.700288
 C         1.423178        -0.114545         0.029738
 C        -0.060608        -0.020267        -0.004665
 O         2.194943         0.084111        -1.280104
 C         3.251050         0.640559        -0.402615
 C         2.390423         0.954398         0.763795
 O         2.272416         2.072912         1.528004
 H         5.135622        -1.286421         1.349652
 H         5.284739         0.536724         1.695312
 H         4.314996        -0.491854         2.840090
 H         2.373777        -2.133894         0.127115
 H         1.781974        -1.455709         1.704121
 H        -0.487449        -0.411789         0.879557
 H        -0.364502         0.952560        -0.317978
 H        -0.405876        -0.682365        -0.747858
 H         4.115596         1.236151        -0.885304
 H         2.472309         2.849390         1.095182
