19
Iteration:  1342charge 0 multiplicity 1
 C         4.685036        -0.351243         1.555952
 C         3.345416        -0.277840         1.005602
 C         2.079893        -1.213268         0.662528
 C         1.387286        -0.033203         0.011203
 C        -0.112509         0.087722        -0.151946
 O         2.323931         0.039322        -1.245107
 C         3.248677         0.568401        -0.413208
 C         2.451961         0.933718         0.804016
 O         2.168761         2.041265         1.721791
 H         5.281793        -0.820199         0.743510
 H         5.144304         0.619420         1.813865
 H         4.856678        -0.941881         2.399677
 H         2.202368        -2.152021         0.102656
 H         1.608509        -1.437155         1.723904
 H        -0.563216         0.049310         0.872775
 H        -0.464377         1.114565        -0.522346
 H        -0.668179        -0.761240        -0.670822
 H         4.254282         0.869622        -0.641211
 H         2.293856         2.854644         1.356490
