19
Iteration:  4306charge 0 multiplicity 1
 C         4.559399        -0.386422         1.786438
 C         3.389021        -0.230572         0.866367
 C         2.223473        -1.144700         0.683936
 C         1.412698        -0.051258         0.088541
 C        -0.027826        -0.107313        -0.036988
 O         2.119825         0.063092        -1.275336
 C         3.195887         0.657349        -0.478458
 C         2.440656         0.962250         0.687531
 O         2.316740         2.032717         1.600912
 H         5.044491        -1.335319         1.735419
 H         5.251579         0.491354         1.918745
 H         4.089492        -0.278530         2.770676
 H         2.391448        -2.041479         0.120928
 H         1.665675        -1.242711         1.657880
 H        -0.439881        -0.310874         0.954995
 H        -0.437618         0.915949        -0.258555
 H        -0.426183        -0.737217        -0.854777
 H         4.058510         1.084345        -1.079124
 H         2.357873         2.786094         1.142627
