19
Iteration:  2781
 C         4.616059        -0.361721         1.730657
 C         3.372552        -0.328144         0.926002
 C         2.267211        -1.304471         0.633815
 C         1.401693        -0.132984         0.038373
 C        -0.115403         0.050299        -0.056021
 O         2.169210         0.083717        -1.215657
 C         3.187936         0.620357        -0.383414
 C         2.406876         0.932381         0.850813
 O         2.274502         2.178087         1.523396
 H         5.230625        -1.183645         1.284960
 H         5.056837         0.639444         1.587930
 H         4.489988        -0.413635         2.838016
 H         2.393431        -2.187710        -0.043476
 H         1.714774        -1.826282         1.440956
 H        -0.630713         0.130954         0.867542
 H        -0.277184         0.951518        -0.638557
 H        -0.456573        -0.788079        -0.607924
 H         3.997169         1.110845        -0.859683
 H         2.595470         2.927946         0.819883
