19
Iteration:  3300charge 0 multiplicity 1
 C         4.462318        -0.380003         1.723975
 C         3.392936        -0.270652         0.800804
 C         2.233377        -1.211037         0.835753
 C         1.455569        -0.053134         0.081857
 C        -0.036603        -0.089028        -0.094467
 O         2.075460         0.153292        -1.194491
 C         3.292660         0.664161        -0.472046
 C         2.471361         0.965197         0.689902
 O         2.282477         2.039139         1.564523
 H         5.222318        -0.979750         1.231483
 H         4.914688         0.497903         1.983697
 H         4.137808        -0.839191         2.670260
 H         2.358960        -2.194990         0.502145
 H         1.810295        -1.313914         1.828033
 H        -0.554108        -0.452560         0.834725
 H        -0.468638         0.922561        -0.451868
 H        -0.428108        -0.845823        -0.832052
 H         4.200431         1.032768        -0.957386
 H         2.676700         2.850675         0.970527
