19
Iteration:  2843charge 0 multiplicity 1
 C         4.595187        -0.338276         1.645367
 C         3.351674        -0.156579         0.833363
 C         2.099218        -1.075511         0.878608
 C         1.455926        -0.053434        -0.023606
 C        -0.080721        -0.065048        -0.148192
 O         2.202782        -0.057978        -1.250288
 C         3.269661         0.602598        -0.539993
 C         2.387266         1.066051         0.678368
 O         2.352943         1.944159         1.811624
 H         4.896894        -1.437970         1.505478
 H         5.464248         0.504589         1.344405
 H         4.496949        -0.340015         2.723307
 H         2.180295        -2.084949         0.431929
 H         1.564409        -1.000770         1.852094
 H        -0.750202        -0.575725         0.701532
 H        -0.575556         1.002280        -0.299591
 H        -0.228986        -0.626282        -1.138988
 H         4.064050         0.987377        -1.073835
 H         1.923336         2.888513         1.578646
