19
Iteration:  4908
 C         4.609184        -0.275978         1.641243
 C         3.352998        -0.183493         0.870994
 C         2.219807        -1.231892         0.786026
 C         1.424988        -0.032280         0.029934
 C        -0.082944         0.022899        -0.125411
 O         2.157333        -0.026917        -1.232946
 C         3.233733         0.593135        -0.484925
 C         2.407920         1.033742         0.743422
 O         2.294172         1.946816         1.709031
 H         5.238751        -1.006118         1.183948
 H         5.245047         0.651314         1.676620
 H         4.310152        -0.363358         2.675233
 H         2.548797        -2.074525         0.191883
 H         1.683121        -1.592851         1.714671
 H        -0.547302        -0.294284         0.854021
 H        -0.516030         0.943324        -0.406252
 H        -0.341538        -0.647290        -0.909839
 H         4.064200         1.065787        -1.014714
 H         1.962220         2.739339         1.375749
