19
Iteration:  4185charge 0 multiplicity 1
 C         4.721653        -0.420942         1.708938
 C         3.355774        -0.296643         0.878682
 C         2.170276        -1.161562         0.746805
 C         1.416460        -0.070789         0.112474
 C        -0.022399         0.014715        -0.079614
 O         2.203778         0.025481        -1.234729
 C         3.213386         0.656124        -0.533232
 C         2.436023         0.924161         0.744292
 O         2.117366         2.085065         1.615074
 H         5.468648        -1.052444         1.202288
 H         5.337597         0.651682         1.880294
 H         4.546083        -0.693593         2.797718
 H         2.103724        -2.065123         0.099028
 H         1.930638        -1.378178         1.865145
 H        -0.554008         0.324898         0.882752
 H        -0.235557         0.864280        -0.759095
 H        -0.645236        -0.715916        -0.602398
 H         4.133021         0.907331        -0.959615
 H         2.136429         2.901437         1.060004
