19
Iteration:  4829
 C         4.625456        -0.453345         1.595023
 C         3.314175        -0.204524         0.862616
 C         2.169285        -1.321295         0.744005
 C         1.431695        -0.033443         0.022392
 C        -0.039385        -0.095422        -0.018907
 O         2.208640         0.071008        -1.229592
 C         3.347764         0.701765        -0.383273
 C         2.347402         0.991262         0.691002
 O         2.168240         2.177886         1.635599
 H         5.179764        -1.297011         1.234375
 H         5.376662         0.410323         1.674766
 H         4.422904        -0.871307         2.584526
 H         2.435559        -2.255219         0.146919
 H         1.882167        -1.532274         1.718279
 H        -0.395961        -0.380771         0.952246
 H        -0.534401         0.787105        -0.342954
 H        -0.423596        -0.956554        -0.535391
 H         4.210795         1.329817        -0.732717
 H         2.312164         3.029970         1.139070
