19
Iteration:  4637charge 0 multiplicity 1
 C         4.632343        -0.471602         1.646006
 C         3.424374        -0.210189         0.916874
 C         2.204335        -1.280670         0.701990
 C         1.436905        -0.049914         0.074733
 C        -0.106875        -0.091154        -0.011800
 O         2.242357         0.167030        -1.187305
 C         3.249448         0.699606        -0.459261
 C         2.397799         0.952554         0.788654
 O         2.166460         2.114534         1.509835
 H         5.046278        -1.451074         1.311765
 H         5.250894         0.409522         1.686390
 H         4.435266        -0.765287         2.714300
 H         2.275971        -2.177685         0.151825
 H         1.650151        -1.324733         1.677210
 H        -0.537607        -0.456212         0.995040
 H        -0.628883         0.827877        -0.272087
 H        -0.382162        -0.886025        -0.761566
 H         4.161625         1.127988        -0.976669
 H         2.187852         2.874463         0.918023
