19
Iteration:  3777charge 0 multiplicity 1
 C         4.522964        -0.390221         1.720779
 C         3.354051        -0.177281         0.802320
 C         2.245055        -1.151856         0.718681
 C         1.484118        -0.073584         0.036154
 C        -0.056712        -0.025950         0.054739
 O         2.176933         0.061355        -1.249630
 C         3.267669         0.587705        -0.454279
 C         2.396675         1.015917         0.726086
 O         2.238114         1.978555         1.565570
 H         5.021525        -1.332952         1.567422
 H         5.458907         0.401937         1.687587
 H         4.075516        -0.589945         2.673737
 H         2.237616        -2.148076         0.226048
 H         1.864144        -1.276470         1.696448
 H        -0.580629         0.133681         1.012396
 H        -0.196341         0.923509        -0.488503
 H        -0.550509        -0.919138        -0.453808
 H         4.076167         1.251330        -0.901099
 H         2.246141         2.757457         1.156777
