19
Iteration:  1245
 C         4.498428        -0.438195         1.675091
 C         3.294003        -0.280555         0.857766
 C         2.166592        -1.284031         0.639974
 C         1.408552        -0.044999         0.001848
 C        -0.044246        -0.086915        -0.052775
 O         2.254532         0.181121        -1.292086
 C         3.239653         0.691632        -0.374127
 C         2.417214         0.987560         0.736283
 O         2.323227         2.073252         1.689328
 H         4.802168        -1.457171         1.946121
 H         5.392532         0.274828         1.453087
 H         4.294610        -0.112361         2.695930
 H         2.328138        -2.060313        -0.058572
 H         1.637465        -1.694088         1.555384
 H        -0.183104        -0.304134         0.992540
 H        -0.628988         0.826285        -0.043822
 H        -0.555268        -0.905971        -0.531563
 H         4.154802         1.219764        -0.698674
 H         2.611286         2.872887         1.010968
