19
Iteration:   850charge 0 multiplicity 1
 C         4.623107        -0.404905         1.640772
 C         3.302285        -0.277586         0.864482
 C         2.152410        -1.221429         0.803828
 C         1.375846        -0.039194         0.029038
 C        -0.087067        -0.017946        -0.232319
 O         2.189476         0.133726        -1.219036
 C         3.305012         0.569278        -0.431153
 C         2.390013         0.965648         0.753106
 O         2.320789         2.068368         1.752439
 H         5.146649        -1.294744         1.457395
 H         5.265337         0.393674         1.170194
 H         4.659071        -0.205144         2.676622
 H         2.404318        -2.085252         0.163048
 H         1.752725        -1.611878         1.819715
 H        -0.592956        -0.107753         0.787633
 H        -0.426409         0.942622        -0.634745
 H        -0.420669        -0.879368        -0.870952
 H         4.109454         1.045684        -0.998962
 H         2.057386         2.941758         1.261067
