19
Iteration:    55
 C         4.444256        -0.352826         1.828435
 C         3.394073        -0.262523         0.727209
 C         2.158491        -1.250879         0.777615
 C         1.413349        -0.170669         0.054123
 C        -0.022065        -0.052850         0.096916
 O         2.179271         0.168135        -1.283665
 C         3.282231         0.682385        -0.447065
 C         2.373443         0.906099         0.717234
 O         2.350218         2.103023         1.382601
 H         5.199884        -1.083986         1.678799
 H         4.886249         0.595460         2.163939
 H         3.871823        -0.671858         2.692923
 H         2.112869        -2.183161         0.498545
 H         1.882272        -1.316651         1.800207
 H        -0.413522        -0.296144         1.092534
 H        -0.360644         0.942448        -0.219166
 H        -0.499822        -0.711101        -0.646895
 H         4.018209         1.362516        -0.827328
 H         3.164861         2.301039         1.600776
