19
Iteration:   199
 C         4.586923        -0.464702         1.819195
 C         3.388883        -0.298304         0.881783
 C         2.202186        -1.255639         0.696214
 C         1.409989        -0.088198        -0.000801
 C        -0.103252        -0.030944         0.004004
 O         2.183880         0.119193        -1.282540
 C         3.219945         0.670995        -0.392018
 C         2.387178         0.934924         0.821307
 O         2.319044         2.222650         1.334302
 H         5.283385        -1.209389         1.405213
 H         5.054939         0.438059         2.011226
 H         4.221186        -0.820198         2.777481
 H         2.274463        -2.244331         0.093510
 H         1.754381        -1.557506         1.666371
 H        -0.520422        -0.184063         0.994076
 H        -0.456664         0.968906        -0.297513
 H        -0.506273        -0.750630        -0.719247
 H         4.138779         1.269912        -0.612568
 H         2.467245         2.270497         2.368317
