19
Iteration:  3315charge 0 multiplicity 1
 C         4.651189        -0.368439         1.736271
 C         3.358211        -0.274121         0.827902
 C         2.190919        -1.272529         0.824568
 C         1.388536        -0.109951         0.081914
 C        -0.091535        -0.049885        -0.129030
 O         2.147647         0.145459        -1.261259
 C         3.184276         0.597020        -0.524163
 C         2.491112         0.988741         0.779350
 O         2.259251         2.088962         1.600602
 H         5.543026        -1.049897         1.430252
 H         4.905379         0.691841         2.048143
 H         4.281932        -0.677869         2.705875
 H         2.203326        -2.279933         0.249018
 H         1.802698        -1.292975         1.880304
 H        -0.644261        -0.029894         0.825648
 H        -0.301091         0.914081        -0.659623
 H        -0.253628        -0.900950        -0.780254
 H         4.044241         1.045943        -1.116641
 H         2.690152         2.957189         1.314178
