19
Iteration:  3835charge 0 multiplicity 1
 C         4.617942        -0.326720         1.630662
 C         3.262773        -0.227439         0.945901
 C         2.218309        -1.282746         0.749845
 C         1.400691        -0.043444         0.052728
 C        -0.137848         0.025429        -0.091807
 O         2.211580         0.116459        -1.170013
 C         3.293754         0.534681        -0.410931
 C         2.393496         0.935065         0.768401
 O         2.327199         2.049362         1.542793
 H         5.248530        -1.042296         1.045480
 H         5.092100         0.685721         1.719128
 H         4.530241        -0.572242         2.738637
 H         2.450196        -2.001362         0.021529
 H         1.828613        -1.667102         1.696167
 H        -0.531322        -0.166916         0.881653
 H        -0.591450         0.891717        -0.587085
 H        -0.343272        -0.826634        -0.799034
 H         4.054224         1.031567        -0.933327
 H         1.913256         2.894843         1.011161
