19
Iteration:  3282
 C         4.564810        -0.418530         1.784164
 C         3.397351        -0.158474         0.879467
 C         2.153868        -1.153614         0.698840
 C         1.423143        -0.021069         0.059112
 C        -0.073239        -0.111848        -0.025631
 O         2.187397         0.085731        -1.263156
 C         3.210255         0.584546        -0.467072
 C         2.383566         0.955538         0.752891
 O         2.358161         2.059045         1.543337
 H         5.448589        -1.138045         1.502766
 H         5.166715         0.550800         1.920198
 H         4.167826        -0.867190         2.689703
 H         2.236535        -2.130085         0.065272
 H         1.703309        -1.388698         1.710608
 H        -0.473060        -0.574038         0.892244
 H        -0.586174         0.872579        -0.137099
 H        -0.380788        -0.697532        -0.877022
 H         4.010486         1.257611        -0.944041
 H         2.123312         2.940456         1.000994
