19
Iteration:  4121charge 0 multiplicity 1
 C         4.618085        -0.356751         1.794479
 C         3.402943        -0.291792         0.875930
 C         2.190148        -1.227775         0.696133
 C         1.384392        -0.013301        -0.001880
 C        -0.095919        -0.051333        -0.037419
 O         2.117503         0.066894        -1.251633
 C         3.272085         0.606368        -0.476258
 C         2.429368         0.970931         0.727152
 O         2.297885         2.083478         1.607736
 H         5.242725        -1.250745         1.689225
 H         5.119359         0.525610         1.672070
 H         4.316946        -0.221171         2.873694
 H         2.388055        -1.997316        -0.045451
 H         1.938634        -1.506409         1.779528
 H        -0.356091        -0.207308         1.023319
 H        -0.530271         0.853638        -0.496693
 H        -0.437144        -0.818321        -0.704764
 H         4.108372         1.048517        -0.908961
 H         2.008076         2.789562         0.971410
