19
Iteration:  3457charge 0 multiplicity 1
 C         4.603902        -0.306192         1.733685
 C         3.372456        -0.322998         0.925770
 C         2.170713        -1.303072         0.707795
 C         1.394610        -0.038397         0.087663
 C        -0.233253        -0.086380        -0.080279
 O         2.235165         0.194446        -1.226613
 C         3.255691         0.606141        -0.373122
 C         2.470205         0.899318         0.764281
 O         2.316174         2.117572         1.493617
 H         5.228945        -1.143133         1.304838
 H         5.030214         0.683349         1.678645
 H         4.561829        -0.402872         2.781432
 H         2.397752        -2.038405        -0.082498
 H         1.683292        -1.744293         1.571190
 H        -0.614635        -0.304512         1.003621
 H        -0.582015         1.012897        -0.220514
 H        -0.569450        -0.818835        -0.925947
 H         4.111253         0.948253        -0.839284
 H         2.380823         2.697098         0.760073
