19
Iteration:   828charge 0 multiplicity 1
 C         4.641978        -0.345741         1.550042
 C         3.297043        -0.169463         0.805980
 C         2.092104        -1.147154         0.821608
 C         1.412273        -0.055947         0.097076
 C        -0.011976         0.032883        -0.274134
 O         2.164180         0.013578        -1.177581
 C         3.240354         0.595776        -0.437851
 C         2.477090         0.972040         0.773052
 O         2.242859         1.952848         1.768806
 H         5.091438        -1.267843         1.321991
 H         5.499862         0.370597         1.348220
 H         4.531803        -0.338484         2.606470
 H         2.210479        -2.111877         0.310108
 H         1.591233        -1.266342         1.873692
 H        -0.734140        -0.150785         0.602041
 H        -0.284041         0.937609        -0.823324
 H        -0.187375        -0.835545        -0.974793
 H         4.177602         0.959039        -0.823398
 H         2.656776         2.907627         1.568226
