19
Iteration:  4226
 C         4.670215        -0.428129         1.573147
 C         3.340916        -0.178174         0.946795
 C         2.200079        -1.149795         0.878685
 C         1.406896        -0.122186         0.085494
 C        -0.087579         0.003018        -0.196819
 O         2.202145         0.078039        -1.230057
 C         3.283244         0.577268        -0.387947
 C         2.387846         0.958685         0.791667
 O         2.155309         2.069692         1.598520
 H         5.283290        -0.931720         0.876560
 H         5.205134         0.613629         1.378248
 H         4.726617        -0.771532         2.565625
 H         2.348757        -2.109433         0.345181
 H         1.657714        -1.525404         1.714110
 H        -0.581085         0.002640         0.841491
 H        -0.147213         1.029714        -0.635024
 H        -0.487364        -0.841297        -0.862021
 H         4.187423         0.656201        -0.899498
 H         2.518859         2.845143         0.987381
