19
Iteration:  1935charge 0 multiplicity 1
 C         4.609271        -0.470371         1.671629
 C         3.285469        -0.272172         0.969565
 C         2.202325        -1.229727         0.646494
 C         1.404241        -0.024923        -0.021951
 C        -0.062240        -0.030526         0.082838
 O         2.256382         0.107255        -1.284711
 C         3.266069         0.618724        -0.420650
 C         2.445363         0.964546         0.814514
 O         2.200185         2.166222         1.529533
 H         5.289978        -1.086343         1.143671
 H         5.140207         0.533093         1.894767
 H         4.414160        -0.968119         2.614200
 H         2.384085        -2.189691         0.027692
 H         1.666115        -1.601296         1.612629
 H        -0.303596        -0.076102         1.101711
 H        -0.552548         0.772728        -0.504889
 H        -0.473095        -0.935711        -0.368306
 H         4.218802         0.881921        -0.844038
 H         1.963928         2.894274         0.984519
