19
Iteration:  2079
 C         4.568175        -0.358988         1.728110
 C         3.363970        -0.278707         0.871124
 C         2.226395        -1.250638         0.680312
 C         1.424924        -0.159987        -0.008860
 C        -0.054380         0.044982        -0.000601
 O         2.162635         0.063832        -1.206242
 C         3.239385         0.643902        -0.417849
 C         2.402326         0.977840         0.733800
 O         2.281298         2.104253         1.600806
 H         4.955372        -1.325338         1.613068
 H         5.329792         0.385312         1.646830
 H         4.275415        -0.375021         2.814846
 H         2.403177        -2.063949        -0.101188
 H         1.724103        -1.633677         1.574662
 H        -0.559508        -0.083717         0.919535
 H        -0.232935         1.048912        -0.382727
 H        -0.546135        -0.627860        -0.618432
 H         4.007110         1.037301        -1.148448
 H         2.350336         2.786755         0.830601
