19
Iteration:  4858
 C         4.711199        -0.357433         1.645498
 C         3.342791        -0.282676         0.991643
 C         2.239430        -1.224088         0.754988
 C         1.390283        -0.043288         0.068601
 C        -0.114994        -0.037331        -0.177026
 O         2.096154         0.147994        -1.218515
 C         3.262518         0.598174        -0.436505
 C         2.441893         0.875201         0.823800
 O         2.228281         2.073515         1.591852
 H         5.428653        -0.970584         1.003717
 H         5.274286         0.544124         1.492599
 H         4.682562        -0.421895         2.763635
 H         2.507919        -2.163464         0.254436
 H         1.830914        -1.410160         1.788785
 H        -0.634692        -0.487285         0.679175
 H        -0.476260         1.055004        -0.376589
 H        -0.435591        -0.720758        -1.054104
 H         4.150618         1.150371        -0.887916
 H         2.055814         2.795940         0.809545
