19
Iteration:  2655
 C         4.669355        -0.216471         1.656679
 C         3.313670        -0.327580         0.925730
 C         2.157980        -1.273918         0.807830
 C         1.358126        -0.017895         0.059307
 C        -0.130375         0.013723        -0.207933
 O         2.175708         0.117067        -1.195015
 C         3.231755         0.563308        -0.411417
 C         2.457586         0.888777         0.814301
 O         2.330473         2.026094         1.590979
 H         5.147685        -1.144545         1.521077
 H         5.211491         0.638223         1.248143
 H         4.365431        -0.240629         2.653348
 H         2.359857        -2.104920         0.155892
 H         1.831757        -1.625199         1.777671
 H        -0.686976        -0.193855         0.737277
 H        -0.444297         0.966443        -0.656454
 H        -0.315905        -0.719728        -1.081938
 H         4.164583         0.969240        -0.886960
 H         2.427928         2.861806         0.961843
