19
Iteration:  2376charge 0 multiplicity 1
 C         4.597822        -0.375186         1.673159
 C         3.356833        -0.212792         0.898323
 C         2.212836        -1.155397         0.816773
 C         1.434340        -0.067212         0.126901
 C        -0.066120        -0.024071        -0.117277
 O         2.150492         0.150235        -1.251118
 C         3.267425         0.566148        -0.475132
 C         2.441125         0.978616         0.717687
 O         2.235623         1.976715         1.604059
 H         5.147162        -1.279791         1.404636
 H         5.219692         0.449537         1.733633
 H         4.409909        -0.727355         2.726526
 H         2.309404        -2.089406         0.386252
 H         1.766786        -1.314752         1.752134
 H        -0.706124         0.075561         0.827341
 H        -0.319705         0.864561        -0.725137
 H        -0.487705        -0.797942        -0.802037
 H         4.092287         0.853050        -1.125220
 H         2.317332         2.675475         0.983107
