19
Iteration:  1815charge 0 multiplicity 1
 C         4.666520        -0.362842         1.623506
 C         3.356071        -0.228172         0.908515
 C         2.178835        -1.194017         0.787751
 C         1.396204        -0.065593         0.037207
 C        -0.082594        -0.045538        -0.268199
 O         2.096540         0.107970        -1.219981
 C         3.184468         0.615532        -0.389613
 C         2.432397         0.940126         0.843071
 O         2.364104         2.043312         1.680162
 H         5.302931        -1.109417         1.191312
 H         5.319127         0.586010         1.606382
 H         4.375054        -0.644100         2.642276
 H         2.209745        -2.190071         0.254651
 H         1.793249        -1.407331         1.829360
 H        -0.557284        -0.227282         0.653967
 H        -0.317096         0.845365        -0.834541
 H        -0.396580        -0.774318        -0.997184
 H         4.068255         1.001611        -0.918408
 H         2.107513         2.845308         1.201277
