19
Iteration:  2920charge 0 multiplicity 1
 C         4.587803        -0.442577         1.684160
 C         3.314986        -0.224425         0.966639
 C         2.271239        -1.276483         0.626755
 C         1.476707        -0.091208         0.102701
 C        -0.144482         0.017097         0.036434
 O         2.241880         0.105721        -1.243268
 C         3.274703         0.606538        -0.392097
 C         2.379992         0.957982         0.779751
 O         2.214231         2.133529         1.457329
 H         5.156293        -1.133570         1.044923
 H         4.965390         0.589216         2.000592
 H         4.409563        -0.994548         2.585366
 H         2.431094        -2.200616         0.063475
 H         2.039516        -1.598621         1.660916
 H        -0.649011         0.213986         1.084958
 H        -0.496287         0.926377        -0.643213
 H        -0.476106        -0.940457        -0.473730
 H         4.129644         1.173334        -0.701028
 H         2.120652         2.835743         0.790329
