19
Iteration:  4835charge 0 multiplicity 1
 C         4.644921        -0.409470         1.586310
 C         3.294915        -0.237900         0.879195
 C         2.165261        -1.255713         0.738863
 C         1.452476        -0.058179         0.022229
 C        -0.026290        -0.095253        -0.010564
 O         2.218864         0.078644        -1.206504
 C         3.277342         0.682605        -0.353656
 C         2.371974         1.008420         0.719477
 O         2.183947         2.124724         1.600472
 H         5.247054        -1.185595         0.996959
 H         5.414760         0.325399         1.683056
 H         4.274654        -0.640550         2.614469
 H         2.241691        -2.067989         0.027974
 H         1.763035        -1.625116         1.759869
 H        -0.457973        -0.465221         0.950249
 H        -0.463080         0.896768        -0.407914
 H        -0.294754        -0.909661        -0.772737
 H         4.173220         1.171900        -0.763087
 H         2.344014         2.896806         1.119207
