19
Iteration:  2647
 C         4.630144        -0.244565         1.685059
 C         3.327419        -0.309143         0.945596
 C         2.145738        -1.340848         0.802149
 C         1.335940         0.026331         0.042405
 C        -0.120549        -0.013336        -0.186923
 O         2.165194         0.165264        -1.179960
 C         3.247379         0.564625        -0.446666
 C         2.464923         0.875590         0.776140
 O         2.330620         2.012251         1.576618
 H         5.362972        -1.077009         1.619609
 H         5.323165         0.704108         1.270753
 H         4.385772         0.096455         2.725333
 H         2.396680        -2.176671         0.044578
 H         1.636657        -1.406478         1.789786
 H        -0.684822        -0.314264         0.723520
 H        -0.429895         0.970440        -0.543272
 H        -0.250637        -0.777293        -0.932692
 H         4.175494         0.892968        -1.044158
 H         2.633687         2.798770         1.084037
