19
Iteration:  4523charge 0 multiplicity 1
 C         4.625486        -0.270317         1.658537
 C         3.358461        -0.173732         0.821276
 C         2.141243        -1.234920         0.827490
 C         1.418634         0.001317         0.078836
 C        -0.064807        -0.017555        -0.143222
 O         2.142042         0.046063        -1.260578
 C         3.297881         0.615627        -0.465772
 C         2.431907         0.939841         0.769264
 O         2.309027         1.904826         1.657531
 H         5.269392        -1.094893         1.437219
 H         5.104192         0.794621         1.612138
 H         4.391332        -0.383746         2.710061
 H         2.185842        -2.053823         0.075541
 H         1.677154        -1.288587         1.805692
 H        -0.464144        -0.103704         0.879324
 H        -0.448786         0.979909        -0.532929
 H        -0.398272        -0.921048        -0.677715
 H         4.076408         1.159840        -0.900544
 H         1.747384         2.625805         1.174236
