19
Iteration:  4526
 C         4.624076        -0.257508         1.670958
 C         3.351212        -0.192999         0.822721
 C         2.142849        -1.203787         0.803577
 C         1.411781        -0.002639         0.083902
 C        -0.059297        -0.010318        -0.123481
 O         2.153904         0.061579        -1.256175
 C         3.288061         0.598466        -0.468832
 C         2.429449         0.925522         0.768718
 O         2.298111         1.915436         1.648691
 H         5.359708        -1.038137         1.384840
 H         5.157304         0.735536         1.533504
 H         4.401261        -0.450020         2.705705
 H         2.218024        -2.106524         0.221238
 H         1.670444        -1.349102         1.801292
 H        -0.582058        -0.120494         0.843302
 H        -0.385865         0.943217        -0.627358
 H        -0.389694        -0.931444        -0.681408
 H         4.162077         1.108476        -1.007240
 H         1.760660         2.550135         1.346685
