19
Iteration:  1011
 C         4.624847        -0.361397         1.577857
 C         3.316752        -0.179089         0.882290
 C         2.172936        -1.261807         0.772191
 C         1.426741        -0.107174         0.012667
 C        -0.059390         0.097636        -0.231283
 O         2.136201         0.050711        -1.188545
 C         3.288470         0.623754        -0.405064
 C         2.363029         0.963127         0.811657
 O         2.323599         2.011129         1.736753
 H         4.931791        -1.470120         1.311854
 H         5.323221         0.423849         1.249045
 H         4.465725        -0.339871         2.725565
 H         2.344667        -2.275862         0.397222
 H         1.720502        -1.380618         1.734977
 H        -0.710872        -0.085430         0.660289
 H        -0.297729         0.981918        -0.774750
 H        -0.151555        -0.786223        -0.832157
 H         4.140772         1.056567        -1.014419
 H         2.134089         2.844360         1.227050
