19
Iteration:   702
 C         4.561396        -0.490388         1.777639
 C         3.371718        -0.270495         0.855564
 C         2.175788        -1.145952         0.731313
 C         1.436672        -0.038849         0.071896
 C        -0.032002        -0.035077        -0.083383
 O         2.178598         0.106742        -1.219411
 C         3.220043         0.681291        -0.512039
 C         2.476927         1.008107         0.736176
 O         2.231860         2.015518         1.611676
 H         5.135807        -1.375247         1.453196
 H         5.240217         0.334895         1.686516
 H         4.329477        -0.690110         2.835688
 H         2.341008        -2.167328         0.183316
 H         1.731419        -1.262863         1.700517
 H        -0.541354        -0.123495         0.856125
 H        -0.476525         0.887563        -0.570869
 H        -0.306922        -0.928384        -0.672139
 H         3.918710         1.169245        -1.203828
 H         2.392580         2.956624         1.022430
