19
Iteration:  4096
 C         4.579515        -0.347472         1.660069
 C         3.355077        -0.200702         0.867978
 C         2.181807        -1.228293         0.876215
 C         1.417854        -0.106900         0.097424
 C        -0.047242        -0.084488        -0.119243
 O         2.121469         0.085028        -1.207182
 C         3.298862         0.657882        -0.541400
 C         2.397362         0.975378         0.690351
 O         2.282374         2.047553         1.638702
 H         4.911753        -1.307920         1.355441
 H         5.389153         0.520115         1.690649
 H         4.290459        -0.393099         2.698487
 H         2.321734        -2.131146         0.206196
 H         1.648980        -1.331698         1.884484
 H        -0.645876        -0.284100         0.820046
 H        -0.201337         0.927944        -0.561892
 H        -0.313047        -0.664165        -1.060626
 H         4.251136         1.098654        -0.963663
 H         2.541894         2.717649         1.144137
