19
Iteration:  1332charge 0 multiplicity 1
 C         4.726620        -0.396549         1.547748
 C         3.238785        -0.226158         0.979375
 C         2.174655        -1.220762         0.712632
 C         1.394227        -0.053140         0.044731
 C        -0.132182         0.129497        -0.135820
 O         2.281548         0.016849        -1.255652
 C         3.312317         0.631302        -0.426886
 C         2.395202         0.955278         0.768583
 O         2.178938         1.997027         1.744990
 H         5.422039        -0.945440         0.904819
 H         5.081781         0.691411         1.716623
 H         4.704218        -0.894788         2.494402
 H         2.337650        -2.148080         0.174380
 H         1.510539        -1.376757         1.681240
 H        -0.677958         0.111501         0.829871
 H        -0.369434         1.071747        -0.726773
 H        -0.371203        -0.708927        -0.838489
 H         4.307733         0.640175        -0.819123
 H         2.227505         2.759807         1.367483
