19
Iteration:  3562charge 0 multiplicity 1
 C         4.686808        -0.346699         1.592166
 C         3.327049        -0.252292         0.993600
 C         2.115571        -1.227520         0.823107
 C         1.430128        -0.057928         0.036048
 C        -0.086377         0.021446        -0.125528
 O         2.177819         0.161489        -1.178153
 C         3.295886         0.615627        -0.440196
 C         2.485212         0.894972         0.771312
 O         2.216435         2.004753         1.538465
 H         5.218353        -1.221503         1.211164
 H         5.212534         0.484407         1.187003
 H         4.639809        -0.387335         2.713705
 H         2.224663        -2.201904         0.284252
 H         1.740794        -1.430153         1.870106
 H        -0.423874         0.200808         0.851574
 H        -0.289013         0.828743        -0.806912
 H        -0.484518        -0.867249        -0.432194
 H         4.177952         0.928084        -0.908701
 H         1.483810         2.496102         0.954195
