19
Iteration:   975
 C         4.734169        -0.330444         1.590505
 C         3.352271        -0.266357         0.923220
 C         2.117595        -1.316447         0.771518
 C         1.399119        -0.013580         0.044740
 C        -0.094103         0.128714        -0.188747
 O         2.161909         0.081598        -1.182544
 C         3.296443         0.565045        -0.351875
 C         2.380875         0.872709         0.806557
 O         2.274710         2.051241         1.641093
 H         5.378450        -0.967455         0.914073
 H         5.269212         0.597500         1.603928
 H         4.786972        -0.728295         2.647024
 H         2.230197        -2.189337         0.079387
 H         1.517407        -1.485282         1.625282
 H        -0.842491         0.253208         0.595152
 H        -0.163967         0.980852        -0.917749
 H        -0.374254        -0.696657        -0.861681
 H         4.183307         1.043465        -0.705047
 H         1.652382         2.647138         1.034990
