19
Iteration:  1936
 C         4.620429        -0.461998         1.662350
 C         3.277097        -0.272542         0.975592
 C         2.195365        -1.233678         0.644512
 C         1.398634        -0.015153        -0.021598
 C        -0.068649        -0.036921         0.076152
 O         2.256111         0.112324        -1.276521
 C         3.270639         0.607480        -0.417594
 C         2.456138         0.968723         0.811310
 O         2.199482         2.154834         1.529850
 H         5.287822        -1.091666         1.143125
 H         5.116293         0.526435         1.903434
 H         4.403444        -0.991459         2.635412
 H         2.377751        -2.216789         0.045653
 H         1.661522        -1.578773         1.604556
 H        -0.293787        -0.075906         1.100016
 H        -0.546585         0.809409        -0.495328
 H        -0.431268        -0.968392        -0.337871
 H         4.233059         0.955859        -0.835981
 H         1.965312         2.952036         0.903503
