19
Iteration:  3336
 C         4.689179        -0.305704         1.682827
 C         3.352010        -0.201956         0.926083
 C         2.193237        -1.218420         0.717199
 C         1.412359        -0.016970         0.031314
 C        -0.111036         0.008444        -0.165467
 O         2.127365        -0.005798        -1.186589
 C         3.267834         0.588359        -0.381649
 C         2.356702         0.920678         0.803717
 O         2.277602         2.006817         1.586215
 H         5.307781        -1.064178         1.069003
 H         5.158803         0.682463         1.692289
 H         4.690654        -0.663045         2.689178
 H         2.362263        -2.029496        -0.060136
 H         1.575895        -1.396196         1.620739
 H        -0.501912         0.334014         0.838473
 H        -0.419781         0.938856        -0.785551
 H        -0.444479        -0.941635        -0.613470
 H         4.165772         1.164193        -0.787340
 H         2.555458         2.916402         1.071734
