19
Iteration:  1991charge 0 multiplicity 1
 C         4.664627        -0.415854         1.646137
 C         3.357201        -0.201566         0.885988
 C         2.227227        -1.218531         0.832381
 C         1.353710        -0.147516         0.041267
 C        -0.087077         0.024284        -0.265464
 O         2.102979         0.009053        -1.145141
 C         3.228716         0.639765        -0.454087
 C         2.394518         1.007169         0.797237
 O         2.336607         2.095325         1.660085
 H         5.189165        -1.116486         1.067393
 H         5.208432         0.522436         1.727048
 H         4.497119        -0.821764         2.682213
 H         2.351198        -2.080719         0.059775
 H         1.881351        -1.589979         1.840827
 H        -0.621486         0.118097         0.626897
 H        -0.074022         0.979488        -0.789542
 H        -0.298009        -0.822450        -0.831062
 H         3.978284         1.241153        -1.095475
 H         2.043461         2.903846         1.172162
