19
Iteration:  1740
 C         4.584044        -0.399003         1.646911
 C         3.318391        -0.257119         0.899389
 C         2.125197        -1.249972         0.663938
 C         1.462144        -0.062295        -0.021640
 C        -0.051573        -0.036900         0.109279
 O         2.269825         0.178394        -1.216730
 C         3.294466         0.656174        -0.395570
 C         2.390118         0.933112         0.778962
 O         2.186992         2.043688         1.492473
 H         5.239483        -0.986885         1.063269
 H         5.157429         0.487455         2.051421
 H         4.296033        -1.010577         2.593878
 H         2.561980        -1.916704        -0.076156
 H         1.567358        -1.671179         1.430977
 H        -0.230292        -0.006410         1.192647
 H        -0.504155         0.956713        -0.279598
 H        -0.630897        -0.798408        -0.457622
 H         4.384469         0.886668        -0.591901
 H         2.232848         2.760933         0.973142
