19
Iteration:   958
 C         4.633678        -0.407810         1.580038
 C         3.347878        -0.341819         0.924468
 C         2.154565        -1.234820         0.798931
 C         1.404346        -0.079301         0.029418
 C        -0.032131         0.109027        -0.176812
 O         2.199164         0.161898        -1.211253
 C         3.246225         0.574943        -0.382660
 C         2.463844         0.952303         0.814974
 O         2.196250         2.008452         1.593531
 H         5.446120        -0.871385         0.984577
 H         4.854293         0.642416         1.861253
 H         4.501354        -0.898271         2.559202
 H         2.318184        -2.173460         0.281228
 H         1.804499        -1.376843         1.874510
 H        -0.298792         0.124090         0.909881
 H        -0.326927         1.046180        -0.596025
 H        -0.547448        -0.765800        -0.578551
 H         4.123649         1.052416        -0.907267
 H         2.034608         2.880141         0.927309
