19
Iteration:  3362
 C         4.616902        -0.330497         1.558574
 C         3.278471        -0.304647         0.909314
 C         2.132394        -1.303062         0.822309
 C         1.458165        -0.168568         0.059829
 C        -0.071562         0.041762        -0.124089
 O         2.239272         0.076732        -1.280660
 C         3.290374         0.616501        -0.378322
 C         2.435970         0.958136         0.824309
 O         2.240658         2.139595         1.625205
 H         5.123781        -1.144358         1.033701
 H         5.132718         0.742310         1.311838
 H         4.765024        -0.442287         2.699447
 H         2.384432        -2.094480         0.036039
 H         1.539505        -1.564170         1.736976
 H        -0.385816         0.483066         0.784085
 H        -0.170972         0.844704        -0.753919
 H        -0.610117        -0.824926        -0.485574
 H         4.260734         0.908279        -0.625793
 H         1.454478         2.771047         1.182472
