19
Iteration:   326
 C         4.683557        -0.512061         1.514814
 C         3.410476        -0.284719         0.866395
 C         2.196145        -1.211371         0.786040
 C         1.380558        -0.007680         0.138650
 C        -0.121489         0.140386        -0.133038
 O         2.313739        -0.033906        -1.154457
 C         3.331958         0.581695        -0.266707
 C         2.407835         0.957143         0.788120
 O         1.990734         2.173088         1.431447
 H         5.273568        -1.384166         1.227413
 H         5.367276         0.425777         1.364090
 H         4.322353        -0.669268         2.551439
 H         2.244692        -1.895965         0.022409
 H         1.912191        -1.605149         1.767089
 H        -0.521538         0.256425         0.874954
 H        -0.264274         1.076123        -0.740676
 H        -0.659811        -0.630406        -0.722047
 H         4.134732         1.025261        -0.871017
 H         2.702187         2.472813         2.251636
