19
Iteration:   916charge 0 multiplicity 1
 C         4.516558        -0.576454         1.805133
 C         3.381876        -0.185771         0.830990
 C         2.262628        -1.139934         0.622362
 C         1.448376        -0.043950         0.002546
 C        -0.056244         0.020069         0.036457
 O         2.186959         0.110552        -1.205276
 C         3.299336         0.611905        -0.549907
 C         2.382924         0.974720         0.814306
 O         2.191086         2.073534         1.566550
 H         5.255054        -1.107393         1.316369
 H         4.944737         0.458224         1.988727
 H         4.285383        -1.056706         2.695599
 H         2.417771        -2.020815        -0.034350
 H         1.864822        -1.570755         1.667689
 H        -0.387437        -0.110508         1.100298
 H        -0.570939         0.968825        -0.253298
 H        -0.442042        -0.891954        -0.528195
 H         4.282866         0.962307        -1.006577
 H         2.331872         2.760880         1.018683
