19
Iteration:   305charge 0 multiplicity 1
 C         4.761489        -0.419249         1.593220
 C         3.298839        -0.269025         1.028755
 C         2.122089        -1.266563         0.815882
 C         1.434380        -0.097665         0.059987
 C        -0.018216         0.139600        -0.198462
 O         2.129477         0.045646        -1.197733
 C         3.283153         0.634786        -0.374661
 C         2.439261         0.907445         0.773158
 O         2.132062         2.147075         1.482641
 H         5.217941        -1.309676         1.114381
 H         5.386884         0.457216         1.194460
 H         4.893379        -0.540164         2.702277
 H         2.213091        -2.201688         0.331009
 H         1.602949        -1.325381         1.763911
 H        -0.634850         0.183212         0.691437
 H        -0.158546         0.979038        -0.910945
 H        -0.339329        -0.740805        -0.796647
 H         4.155271         1.013716        -0.922272
 H         2.475318         2.112009         2.389009
