19
Iteration:  1547
 C         4.599552        -0.444500         1.664069
 C         3.372706        -0.310831         0.878175
 C         2.169932        -1.162821         0.757332
 C         1.461156         0.010343         0.016172
 C        -0.018355         0.011817        -0.009456
 O         2.176944         0.199188        -1.284197
 C         3.352682         0.512797        -0.449316
 C         2.397421         0.925114         0.783972
 O         2.152852         2.046672         1.606042
 H         5.478748        -0.916366         1.057665
 H         4.671831         0.557856         2.007600
 H         4.529941        -1.105985         2.595969
 H         2.071242        -2.110150         0.139779
 H         1.723727        -1.362545         1.700663
 H        -0.399832        -0.067140         0.990802
 H        -0.469599         0.938328        -0.360935
 H        -0.174142        -0.830229        -0.643830
 H         4.292241         0.870790        -0.921851
 H         1.836500         2.851011         1.082843
