19
Iteration:  3489
 C         4.599014        -0.299021         1.731140
 C         3.304797        -0.295294         0.925083
 C         2.160469        -1.261804         0.739728
 C         1.453225        -0.066750         0.108899
 C        -0.028353        -0.084788        -0.155420
 O         2.113101         0.141395        -1.232277
 C         3.183079         0.602613        -0.424505
 C         2.414694         0.917601         0.820311
 O         2.410925         2.115382         1.542330
 H         5.301159        -1.020361         1.158071
 H         5.083802         0.645814         1.713340
 H         4.387641        -0.656666         2.736185
 H         2.255709        -2.072511         0.052315
 H         1.675201        -1.582016         1.635987
 H        -0.558920        -0.374407         0.823859
 H        -0.190910         0.979616        -0.543140
 H        -0.396314        -0.838447        -0.936827
 H         3.953236         1.094495        -0.943442
 H         1.924184         2.826650         0.896865
