19
Iteration:  3615
 C         4.569084        -0.425301         1.698125
 C         3.364641        -0.201896         0.880173
 C         2.279879        -1.225178         0.722355
 C         1.465256        -0.059354         0.129446
 C        -0.034469         0.011539         0.029420
 O         2.136523         0.071685        -1.216196
 C         3.227613         0.604248        -0.462175
 C         2.431055         0.990199         0.727395
 O         2.158722         2.048230         1.491328
 H         5.044522        -1.311589         1.343285
 H         5.298925         0.438892         1.613588
 H         4.203700        -0.662495         2.728814
 H         2.512823        -2.054454        -0.023553
 H         1.850443        -1.658638         1.687361
 H        -0.587896         0.127704         0.950777
 H        -0.180373         1.014743        -0.460455
 H        -0.365806        -0.801677        -0.791569
 H         4.042834         1.069575        -0.908077
 H         2.671662         2.847402         1.251582
