19
Iteration:   609charge 0 multiplicity 1
 C         4.585989        -0.434736         1.719687
 C         3.392659        -0.190412         0.863722
 C         2.163645        -1.204038         0.796090
 C         1.397857        -0.041127         0.032118
 C        -0.071096         0.040884        -0.157250
 O         2.169686         0.011311        -1.231968
 C         3.260983         0.624187        -0.500125
 C         2.492382         1.036099         0.719802
 O         2.231774         2.006951         1.663925
 H         5.252416        -1.166378         1.196057
 H         5.274730         0.494935         2.051547
 H         4.327562        -0.910812         2.684368
 H         2.322702        -2.148254         0.254142
 H         1.765405        -1.415029         1.871275
 H        -0.434596        -0.121907         0.896574
 H        -0.524268         1.024865        -0.357401
 H        -0.461795        -0.755906        -0.821754
 H         4.113997         0.977237        -1.112878
 H         2.129579         3.016560         1.227779
