19
Iteration:  4184charge 0 multiplicity 1
 C         4.719770        -0.419626         1.713789
 C         3.348581        -0.285192         0.882966
 C         2.174532        -1.165089         0.737318
 C         1.412146        -0.069945         0.105044
 C        -0.024291         0.015707        -0.070837
 O         2.204655         0.032593        -1.231565
 C         3.214757         0.643483        -0.530550
 C         2.441959         0.917386         0.738942
 O         2.120565         2.082509         1.617379
 H         5.453175        -1.044709         1.210318
 H         5.377091         0.671680         1.888316
 H         4.525587        -0.692011         2.775547
 H         2.099497        -2.089445         0.110463
 H         1.953609        -1.396894         1.833435
 H        -0.560213         0.329541         0.901554
 H        -0.222672         0.876957        -0.760296
 H        -0.653692        -0.743989        -0.607906
 H         4.113334         0.908460        -0.949887
 H         2.115253         2.951837         0.997700
