19
Iteration:   448charge 0 multiplicity 1
 C         4.678718        -0.268581         1.703745
 C         3.343037        -0.334804         0.945697
 C         2.133835        -1.192655         0.756366
 C         1.404580        -0.081820        -0.040447
 C        -0.132835        -0.002420        -0.265022
 O         2.094908         0.098898        -1.213905
 C         3.238382         0.568769        -0.381570
 C         2.441659         0.915418         0.764370
 O         2.433013         2.056825         1.676465
 H         5.277989        -1.117094         1.266022
 H         5.152907         0.727210         1.501869
 H         4.564955        -0.407723         2.821844
 H         2.153592        -2.246074         0.452047
 H         1.707851        -1.056151         1.779408
 H        -0.782131        -0.075167         0.650282
 H        -0.361578         0.948628        -0.771736
 H        -0.389469        -0.849808        -0.964225
 H         4.055620         0.996031        -0.932426
 H         1.749505         2.597843         1.492472
