19
Iteration:   683
 C         4.651253        -0.379821         1.643666
 C         3.343278        -0.167958         0.898350
 C         2.201432        -1.211747         0.765759
 C         1.411489        -0.050614         0.034481
 C        -0.143139        -0.005571        -0.243202
 O         2.131122         0.049293        -1.252493
 C         3.286260         0.543705        -0.383751
 C         2.373079         0.986931         0.746126
 O         2.315121         2.045849         1.715397
 H         5.067832        -1.388174         1.410325
 H         5.431445         0.309234         1.632164
 H         4.420213        -0.343336         2.713743
 H         2.356080        -2.030943         0.111122
 H         1.878082        -1.527316         1.746630
 H        -0.636472         0.038127         0.720764
 H        -0.561903         0.966557        -0.576248
 H        -0.521349        -0.894761        -0.746970
 H         4.273279         1.022056        -0.583607
 H         2.524573         3.004994         1.120868
