19
Iteration:  4371charge 0 multiplicity 1
 C         4.688442        -0.297590         1.606328
 C         3.317459        -0.242229         0.946437
 C         2.200900        -1.250104         0.790874
 C         1.422951        -0.101450         0.104156
 C        -0.100019         0.039504        -0.164615
 O         2.174768         0.116283        -1.158973
 C         3.229158         0.601981        -0.483137
 C         2.469596         0.920453         0.770747
 O         2.243904         1.974106         1.586550
 H         5.434360        -0.917779         1.206946
 H         5.168801         0.760449         1.707384
 H         4.428236        -0.573187         2.607139
 H         2.264914        -2.206551         0.319461
 H         1.533148        -1.440706         1.654388
 H        -0.564932         0.378466         0.790967
 H        -0.218024         0.876314        -0.944750
 H        -0.609072        -0.796821        -0.698178
 H         4.128720         1.037505        -0.949424
 H         1.854056         2.642770         1.112479
