19
Iteration:  3975
 C         4.574237        -0.375037         1.757764
 C         3.416249        -0.226932         0.847366
 C         2.217571        -1.145252         0.678007
 C         1.490100        -0.018507         0.034286
 C         0.031113        -0.003909         0.021907
 O         2.134608         0.080391        -1.231902
 C         3.215358         0.524539        -0.517196
 C         2.401574         0.905535         0.783017
 O         2.128061         2.069114         1.555346
 H         5.001443        -1.226016         1.389089
 H         5.302962         0.482421         1.977228
 H         4.158448        -0.567761         2.702861
 H         2.337545        -2.183827         0.137507
 H         1.653357        -1.365187         1.622647
 H        -0.050870         0.186433         1.084921
 H        -0.348718         0.825337        -0.580439
 H        -0.307133        -0.978813        -0.460467
 H         4.044308         0.965709        -1.009530
 H         2.702481         2.804472         1.186092
