19
Iteration:   363charge 0 multiplicity 1
 C         4.609671        -0.584297         1.710975
 C         3.332292        -0.280629         1.067619
 C         2.214103        -1.155570         0.853278
 C         1.496284        -0.117208         0.008704
 C         0.032440         0.076546         0.031662
 O         2.135335         0.211831        -1.274912
 C         3.315117         0.707516        -0.559584
 C         2.520050         0.944546         0.727855
 O         1.980769         2.035319         1.349629
 H         5.188482        -1.469716         1.266826
 H         5.234713         0.155250         2.116038
 H         4.246545        -0.992449         2.714378
 H         2.408396        -2.101434         0.238859
 H         1.696978        -1.445530         1.735491
 H        -0.250845         0.007888         1.102300
 H        -0.289887         1.056292        -0.250203
 H        -0.529704        -0.759775        -0.373522
 H         4.280215         0.978921        -0.967668
 H         2.764935         2.791947         1.610969
