19
Iteration:   829
 C         4.636219        -0.345892         1.547024
 C         3.288609        -0.168585         0.802286
 C         2.103787        -1.153969         0.812121
 C         1.420243        -0.052424         0.092984
 C        -0.014147         0.032353        -0.268679
 O         2.163841         0.013614        -1.171220
 C         3.236004         0.590184        -0.430084
 C         2.476512         0.979421         0.776883
 O         2.243910         1.952990         1.769673
 H         5.093898        -1.273699         1.331068
 H         5.531147         0.378749         1.333126
 H         4.505470        -0.335525         2.613397
 H         2.189071        -2.119037         0.328422
 H         1.595849        -1.239423         1.844823
 H        -0.723720        -0.166148         0.591247
 H        -0.285051         0.927385        -0.849544
 H        -0.198809        -0.830917        -0.984166
 H         4.190774         0.925735        -0.826084
 H         2.663234         2.949607         1.550823
