19
Iteration:   449
 C         4.676890        -0.268213         1.697138
 C         3.348146        -0.332987         0.937478
 C         2.132344        -1.194666         0.764061
 C         1.397957        -0.076046        -0.034830
 C        -0.134334        -0.001501        -0.273893
 O         2.103635         0.103523        -1.209943
 C         3.235582         0.556717        -0.389768
 C         2.443497         0.917595         0.763579
 O         2.429554         2.060318         1.683925
 H         5.288288        -1.137249         1.252711
 H         5.147442         0.712124         1.523456
 H         4.561621        -0.386617         2.835522
 H         2.121257        -2.250144         0.504923
 H         1.739438        -1.055539         1.744313
 H        -0.791716        -0.091233         0.633509
 H        -0.376687         0.940450        -0.761907
 H        -0.362951        -0.867701        -0.936473
 H         4.060454         0.998372        -0.947566
 H         1.745389         2.562203         1.496635
