19
Iteration:  1788
 C         4.596002        -0.508833         1.720900
 C         3.412329        -0.215547         0.861501
 C         2.225342        -1.247582         0.717429
 C         1.389630        -0.075749         0.144785
 C        -0.048284        -0.062181        -0.137545
 O         2.094191         0.165320        -1.185913
 C         3.254524         0.712907        -0.444586
 C         2.445702         0.996282         0.761315
 O         2.287405         2.077049         1.552566
 H         5.406541        -1.053002         1.112524
 H         5.093316         0.324555         2.184616
 H         4.220768        -1.136580         2.570275
 H         2.210378        -2.312878         0.206253
 H         1.995445        -1.337908         1.850551
 H        -0.672685        -0.127699         0.850380
 H        -0.423750         0.773172        -0.794732
 H        -0.263783        -0.918941        -0.848426
 H         4.076686         1.131466        -1.002118
 H         1.808650         2.855090         1.012488
