19
Iteration:  2981charge 0 multiplicity 1
 C         4.657265        -0.389784         1.653633
 C         3.355997        -0.203818         0.895739
 C         2.223512        -1.237501         0.785931
 C         1.379150        -0.090129         0.052734
 C        -0.110579         0.028265        -0.089232
 O         2.188518         0.091810        -1.208541
 C         3.295669         0.611952        -0.443691
 C         2.448044         0.957769         0.714458
 O         2.216599         2.034623         1.580631
 H         5.389337        -1.228900         1.340562
 H         5.203078         0.507049         1.774081
 H         4.258350        -0.657499         2.741031
 H         2.218485        -2.219815         0.304108
 H         1.790813        -1.223966         1.803809
 H        -0.537416         0.180131         0.874101
 H        -0.402965         0.800495        -0.710339
 H        -0.533372        -0.890550        -0.488034
 H         4.148850         0.983777        -0.916464
 H         1.855111         2.863859         0.978823
