19
Iteration:   480
 C         4.550094        -0.377812         1.573851
 C         3.301499        -0.216144         0.886430
 C         2.104039        -1.058397         0.866018
 C         1.424980         0.028211         0.096670
 C         0.004525        -0.061622        -0.251260
 O         2.150231         0.012561        -1.173566
 C         3.274876         0.617696        -0.482234
 C         2.497335         1.050360         0.669289
 O         2.303941         1.906020         1.757878
 H         5.055446        -1.251193         1.133646
 H         5.251603         0.482675         1.485185
 H         4.496943        -0.521930         2.662990
 H         1.989274        -2.103759         0.490004
 H         1.750233        -1.196948         1.988150
 H        -0.793042        -0.265327         0.510581
 H        -0.234659         0.849354        -0.828442
 H         0.022914        -0.956492        -0.930888
 H         4.199480         0.861026        -0.996188
 H         1.966221         2.875674         1.329953
