19
Iteration:   814charge 0 multiplicity 1
 C         4.726860        -0.375220         1.614040
 C         3.380583        -0.274105         0.941956
 C         2.099708        -1.163599         0.922237
 C         1.394345        -0.001153         0.097388
 C        -0.081539         0.043821        -0.280762
 O         2.193443         0.050778        -1.253946
 C         3.232304         0.653728        -0.505923
 C         2.413234         0.984275         0.730986
 O         2.215541         1.913324         1.732574
 H         5.323061        -1.237332         1.203942
 H         5.194460         0.460005         1.307825
 H         4.631811        -0.455146         2.706395
 H         2.047404        -2.164969         0.326114
 H         1.765336        -1.370240         1.970213
 H        -0.714717        -0.061743         0.631253
 H        -0.220421         0.994551        -0.817340
 H        -0.357142        -0.698049        -1.017850
 H         3.901559         1.235490        -1.138964
 H         2.753250         2.712870         1.430620
