19
Iteration:  4738
 C         4.633536        -0.242821         1.608503
 C         3.248532        -0.219614         0.953382
 C         2.175685        -1.221893         0.747016
 C         1.388919        -0.019920         0.037559
 C        -0.092606        -0.003831        -0.099817
 O         2.259401         0.047721        -1.232579
 C         3.178389         0.620388        -0.475549
 C         2.447306         0.918516         0.697717
 O         2.297503         1.934557         1.721340
 H         5.482689        -0.941198         1.158683
 H         5.061272         0.692642         1.363068
 H         4.391672        -0.510346         2.698509
 H         2.616970        -2.120515         0.305117
 H         1.595446        -1.539676         1.649364
 H        -0.565753        -0.008443         0.896994
 H        -0.179085         0.907644        -0.798742
 H        -0.449305        -0.978052        -0.532931
 H         3.871097         1.233678        -0.930095
 H         2.364849         2.831142         1.240433
