19
Iteration:  1531
 C         4.642197        -0.384347         1.630585
 C         3.380233        -0.265192         0.876786
 C         2.090884        -1.200607         0.767743
 C         1.438914        -0.012950         0.066839
 C        -0.088577         0.080177        -0.086118
 O         2.220524         0.113052        -1.214134
 C         3.311885         0.602702        -0.444645
 C         2.519835         0.966273         0.716258
 O         2.148874         1.905544         1.629410
 H         5.293437        -0.923500         1.017211
 H         5.174373         0.560783         1.960846
 H         4.376988        -0.901416         2.528099
 H         2.251896        -2.187336         0.265450
 H         1.666212        -1.191438         1.819626
 H        -0.578826        -0.047554         0.946412
 H        -0.345452         1.072873        -0.533720
 H        -0.461231        -0.761908        -0.758100
 H         4.223940         1.017588        -0.869883
 H         1.804022         2.885778         1.142179
