19
Iteration:  4657
 C         4.609889        -0.463413         1.653848
 C         3.407463        -0.239621         0.876831
 C         2.253258        -1.188758         0.755483
 C         1.405369        -0.141458        -0.024682
 C        -0.031552        -0.070180        -0.036143
 O         2.155291         0.082253        -1.280332
 C         3.225111         0.621735        -0.357768
 C         2.387492         1.039106         0.800336
 O         2.241715         2.138754         1.590311
 H         5.068930        -1.386132         1.390836
 H         5.229686         0.444964         1.657487
 H         4.471620        -0.575950         2.695958
 H         2.422095        -1.913110         0.001203
 H         1.871757        -1.603569         1.699332
 H        -0.524384        -0.450910         0.884792
 H        -0.388136         0.937365        -0.148539
 H        -0.474717        -0.581457        -0.915209
 H         4.094239         1.341588        -0.701228
 H         1.652931         2.822661         0.951212
