19
Iteration:   688charge 0 multiplicity 1
 C         4.637208        -0.443016         1.689750
 C         3.377495        -0.176088         0.881775
 C         2.211868        -1.201960         0.770326
 C         1.405767        -0.008405         0.001590
 C        -0.123753        -0.005792        -0.167504
 O         2.116703         0.041703        -1.265774
 C         3.292304         0.585836        -0.390949
 C         2.363480         0.987287         0.725087
 O         2.297316         2.055863         1.680700
 H         5.096414        -1.393272         1.418417
 H         5.507871         0.443066         1.688221
 H         4.329058        -0.389130         2.758870
 H         2.317438        -2.119880         0.095384
 H         1.834035        -1.540268         1.782596
 H        -0.714608        -0.063730         0.802425
 H        -0.448334         0.907883        -0.686223
 H        -0.345813        -0.912495        -0.782028
 H         4.200873         1.064420        -0.716832
 H         2.481190         2.848014         1.369893
