19
Iteration:  1098charge 0 multiplicity 1
 C         4.576710        -0.412618         1.782208
 C         3.400363        -0.287735         0.868790
 C         2.232596        -1.285484         0.665658
 C         1.388505        -0.086048         0.065217
 C        -0.087681         0.047658        -0.084613
 O         2.212640         0.156149        -1.211513
 C         3.156811         0.693641        -0.444201
 C         2.376038         0.907651         0.824295
 O         2.317576         2.044627         1.553315
 H         5.242208        -1.133643         1.176350
 H         5.188678         0.441313         1.882393
 H         4.489860        -0.890557         2.788370
 H         2.463441        -1.994440        -0.163974
 H         1.667733        -1.688544         1.466603
 H        -0.476707         0.056661         0.982720
 H        -0.376752         1.006252        -0.481086
 H        -0.652480        -0.720075        -0.620731
 H         3.981630         1.151413        -0.995612
 H         2.328228         2.894017         0.863061
