19
Iteration:  1401
 C         4.610191        -0.579191         1.844167
 C         3.425143        -0.223081         0.852326
 C         2.299049        -1.208415         0.595391
 C         1.433691        -0.036337         0.045870
 C        -0.111097        -0.018209        -0.110822
 O         2.079569         0.131268        -1.202075
 C         3.199003         0.673671        -0.422300
 C         2.399766         1.005412         0.729594
 O         2.325814         2.104463         1.619347
 H         5.227673        -1.404077         1.436877
 H         5.292804         0.379838         1.981162
 H         4.150670        -1.036383         2.804765
 H         2.339855        -2.158857         0.006610
 H         1.859361        -1.552720         1.558601
 H        -0.551298        -0.256976         0.868016
 H        -0.440408         0.894229        -0.552423
 H        -0.302819        -0.799390        -0.828257
 H         4.047724         1.153654        -0.989866
 H         1.682783         2.909910         1.120183
