19
Iteration:   251
 C         4.510232        -0.324550         1.814858
 C         3.439684        -0.336021         0.764280
 C         2.112665        -1.153285         0.661039
 C         1.335647         0.003827         0.104332
 C        -0.114441        -0.066060        -0.105263
 O         2.198856        -0.008941        -1.192475
 C         3.184740         0.580006        -0.491677
 C         2.466095         1.021061         0.770088
 O         2.474942         2.152950         1.530625
 H         5.299686        -1.081515         1.637603
 H         4.991263         0.715348         1.750990
 H         4.043044        -0.520312         2.810019
 H         2.257356        -1.945544        -0.173387
 H         1.750832        -1.523336         1.626000
 H        -0.501081        -0.496901         0.813247
 H        -0.714141         0.845220        -0.322151
 H        -0.259432        -0.865871        -0.855944
 H         3.995901         1.203376        -0.913664
 H         2.008804         1.930482         2.486323
