19
Iteration:  3073charge 0 multiplicity 1
 C         4.526991        -0.423363         1.697499
 C         3.331790        -0.171469         0.870706
 C         2.160124        -1.144608         0.851080
 C         1.476856        -0.036233         0.056673
 C        -0.093420        -0.106082        -0.094046
 O         2.194822         0.082104        -1.194878
 C         3.287100         0.662513        -0.535765
 C         2.473020         0.994178         0.655841
 O         2.290331         1.987826         1.616139
 H         5.125999        -1.364263         1.329038
 H         5.209110         0.544093         1.645738
 H         4.087949        -0.622681         2.676710
 H         2.221597        -2.150368         0.311746
 H         1.910549        -1.141581         1.935683
 H        -0.445828        -0.563404         0.853036
 H        -0.670496         0.876483        -0.081332
 H        -0.484024        -0.716202        -0.877851
 H         4.097228         1.075138        -1.182541
 H         2.099618         2.904295         1.116287
