19
Iteration:  1844
 C         4.598606        -0.227666         1.509244
 C         3.260452        -0.265553         0.973032
 C         2.071996        -1.186567         0.760380
 C         1.429442        -0.041526         0.017387
 C        -0.151361        -0.025045        -0.210326
 O         2.271365         0.044488        -1.228780
 C         3.247310         0.576802        -0.349217
 C         2.440035         0.986854         0.770818
 O         2.378372         1.952710         1.732026
 H         5.188338        -1.217002         1.369863
 H         5.186598         0.592760         1.021047
 H         4.517346        -0.063585         2.547018
 H         2.254401        -2.073836         0.076874
 H         1.704350        -1.625688         1.782491
 H        -0.521125        -0.356001         0.821585
 H        -0.390188         1.011329        -0.537181
 H        -0.587709        -0.796741        -0.938137
 H         4.195411         1.029485        -0.812751
 H         2.161239         2.990483         1.459813
