19
Iteration:  2789
 C         4.597076        -0.326746         1.737463
 C         3.361720        -0.277631         0.893171
 C         2.166721        -1.313720         0.660460
 C         1.445157        -0.095948         0.139819
 C        -0.060120         0.019051        -0.119596
 O         2.146118         0.117087        -1.227057
 C         3.172151         0.589886        -0.408849
 C         2.453094         0.893627         0.816102
 O         2.302375         2.114406         1.535381
 H         5.342959        -1.038751         1.508163
 H         5.456688         0.458598         1.535327
 H         4.448398        -0.365916         2.785663
 H         2.395531        -1.987066        -0.126031
 H         1.804116        -1.555900         1.659923
 H        -0.662258        -0.068533         0.865615
 H        -0.390702         0.992879        -0.633963
 H        -0.602155        -0.761619        -0.714543
 H         4.014314         1.083751        -0.765197
 H         2.244443         2.932511         0.823442
