19
Iteration:  1917
 C         4.565374        -0.494381         1.737636
 C         3.340330        -0.171754         0.874489
 C         2.261611        -1.250398         0.684768
 C         1.456073        -0.134242         0.043416
 C        -0.041931         0.014404         0.004916
 O         2.160686         0.084672        -1.231432
 C         3.255237         0.643710        -0.437119
 C         2.388775         1.020135         0.694338
 O         2.241926         2.104271         1.561410
 H         5.109600        -1.353814         1.278146
 H         5.148542         0.362684         1.877080
 H         4.206353        -0.856756         2.799925
 H         2.528157        -2.027502        -0.030103
 H         1.832110        -1.656543         1.549359
 H        -0.319798         0.085900         1.097198
 H        -0.141648         1.069707        -0.293330
 H        -0.519104        -0.883483        -0.395054
 H         4.106464         1.294525        -0.840966
 H         1.760419         2.674847         0.936171
