19
Iteration:  2719
 C         4.668939        -0.520866         1.671679
 C         3.429098        -0.246251         0.836622
 C         2.154564        -1.137228         0.854118
 C         1.459641        -0.027229         0.047431
 C        -0.033759         0.014434        -0.068791
 O         2.192214         0.112763        -1.181405
 C         3.304589         0.553665        -0.420414
 C         2.437952         1.015612         0.695153
 O         2.077911         2.061533         1.547544
 H         5.453319        -0.918568         1.022914
 H         5.236130         0.238035         2.067127
 H         4.467493        -1.293852         2.469626
 H         2.167048        -2.032775         0.286852
 H         1.718127        -1.022160         1.796524
 H        -0.488808         0.069743         0.941840
 H        -0.432898         0.784898        -0.718784
 H        -0.421272        -0.975233        -0.507410
 H         4.144161         0.941039        -1.091062
 H         1.640556         2.857042         0.977686
