19
Iteration:   444charge 0 multiplicity 1
 C         4.678450        -0.270957         1.724029
 C         3.323286        -0.319837         0.969724
 C         2.130074        -1.192944         0.746919
 C         1.415014        -0.104624        -0.046372
 C        -0.121818        -0.008719        -0.230908
 O         2.073907         0.083054        -1.236521
 C         3.249191         0.612781        -0.362336
 C         2.429721         0.916614         0.783139
 O         2.453782         2.030206         1.642885
 H         5.290144        -1.030177         1.337669
 H         5.146708         0.699829         1.448009
 H         4.576776        -0.480670         2.748443
 H         2.283691        -2.201739         0.226638
 H         1.576329        -1.172916         1.815071
 H        -0.689497        -0.019244         0.684718
 H        -0.291776         0.952329        -0.787177
 H        -0.486996        -0.719903        -1.010743
 H         4.100602         1.023270        -0.892184
 H         1.668155         2.802438         1.412948
