19
Iteration:  3010
 C         4.668464        -0.270342         1.548213
 C         3.261282        -0.251177         1.020434
 C         2.178951        -1.305982         0.730831
 C         1.353782        -0.134644         0.115525
 C        -0.034277         0.052026        -0.229549
 O         2.192385         0.005667        -1.212034
 C         3.160804         0.601718        -0.373384
 C         2.397291         0.921239         0.821349
 O         2.397481         2.107308         1.612247
 H         5.276772        -1.065784         1.509747
 H         5.129356         0.747541         1.322374
 H         4.608216        -0.103365         2.592363
 H         2.299108        -2.088070        -0.022611
 H         1.696831        -1.690252         1.601468
 H        -0.634456         0.154274         0.718781
 H        -0.239280         1.077595        -0.722099
 H        -0.347546        -0.818411        -0.940691
 H         4.061772         1.130148        -0.746997
 H         1.737985         2.746143         1.182120
