19
Iteration:  2153
 C         4.641269        -0.434806         1.520319
 C         3.316535        -0.251565         0.886029
 C         2.077366        -1.183473         0.878420
 C         1.389604         0.033246         0.005711
 C        -0.033382        -0.024802        -0.124606
 O         2.240298         0.066740        -1.235597
 C         3.345573         0.560822        -0.371043
 C         2.379840         0.995791         0.750734
 O         2.236497         2.044019         1.635408
 H         5.455105        -0.964962         1.011065
 H         4.981731         0.658591         1.842786
 H         4.713555        -0.850207         2.512415
 H         2.199961        -2.114548         0.439535
 H         1.545320        -1.160305         1.806873
 H        -0.516133        -0.062062         0.876858
 H        -0.448156         0.877220        -0.709006
 H        -0.400299        -1.069507        -0.457524
 H         4.285564         0.950522        -0.881039
 H         2.011765         2.878672         1.105776
