19
Iteration:  3271
 C         4.622166        -0.411727         1.818431
 C         3.362028        -0.275856         0.900659
 C         2.184602        -1.226113         0.679249
 C         1.373878        -0.049988         0.027697
 C        -0.151890        -0.095506        -0.035909
 O         2.193194         0.036320        -1.293922
 C         3.229042         0.668183        -0.445765
 C         2.449374         1.009119         0.733019
 O         2.372697         2.163171         1.584585
 H         5.203328        -1.220227         1.187162
 H         5.166333         0.602408         2.008443
 H         4.409501        -0.623075         2.858889
 H         2.371181        -2.136050        -0.048370
 H         1.566732        -1.567385         1.561335
 H        -0.466192        -0.612652         0.886337
 H        -0.608839         0.926485        -0.017859
 H        -0.547699        -0.685326        -0.834470
 H         4.180515         1.148134        -0.904379
 H         1.706590         2.821399         1.012471
