19
Iteration:  1214
 C         4.615175        -0.477989         1.738317
 C         3.401415        -0.269300         0.880355
 C         2.205973        -1.185406         0.680760
 C         1.410820        -0.012779         0.060726
 C        -0.064508        -0.057168        -0.150882
 O         2.087022         0.215912        -1.242600
 C         3.237082         0.632619        -0.361642
 C         2.447013         0.934333         0.777689
 O         2.280165         1.996920         1.600297
 H         5.153176        -1.427167         1.608355
 H         5.518051         0.305398         1.493613
 H         4.107947        -0.281980         2.719948
 H         2.411179        -1.915016        -0.087223
 H         1.728627        -1.485983         1.621086
 H        -0.449426        -0.104632         0.895140
 H        -0.464628         0.889174        -0.480564
 H        -0.486071        -0.821231        -0.779923
 H         4.151580         1.107023        -0.724286
 H         2.275272         2.817440         0.999666
