19
Iteration:   103charge 0 multiplicity 1
 C         4.716522        -0.346273         1.633475
 C         3.342493        -0.285532         0.926313
 C         2.198804        -1.220048         0.753575
 C         1.428693        -0.047859         0.109790
 C         0.001227         0.110973        -0.156551
 O         2.149061        -0.007123        -1.234234
 C         3.273911         0.372909        -0.477292
 C         2.391735         1.033852         0.726886
 O         2.075553         2.165804         1.712461
 H         5.185619        -1.330905         1.231644
 H         5.279162         0.489573         1.278846
 H         4.754908        -0.324534         2.754956
 H         2.433248        -2.131631         0.171265
 H         1.670871        -1.580252         1.634248
 H        -0.554802         0.273050         0.775943
 H        -0.173896         1.006616        -0.759362
 H        -0.436172        -0.716388        -0.727607
 H         4.196772         0.645962        -1.045409
 H         2.656547         2.971044         1.338442
