19
Iteration:  3558
 C         4.645728        -0.367340         1.597089
 C         3.352466        -0.250665         0.982755
 C         2.120584        -1.242875         0.840382
 C         1.420825        -0.003864         0.029906
 C        -0.070891         0.011400        -0.124056
 O         2.188955         0.143345        -1.163705
 C         3.280342         0.633270        -0.453967
 C         2.511764         0.919498         0.754921
 O         2.202007         1.997233         1.549423
 H         5.120219        -1.215507         1.130753
 H         5.239333         0.600668         1.217374
 H         4.678325        -0.352103         2.680277
 H         2.164318        -2.256913         0.318894
 H         1.690469        -1.388385         1.850577
 H        -0.448375         0.147907         0.936184
 H        -0.201757         0.832428        -0.863347
 H        -0.543104        -1.064020        -0.502051
 H         4.192469         0.843898        -1.068625
 H         1.582906         2.471924         1.100656
