19
Iteration:  2043
 C         4.630982        -0.273774         1.704989
 C         3.369355        -0.317348         0.849318
 C         2.087565        -1.182230         0.798428
 C         1.418401        -0.061562         0.016510
 C        -0.084128        -0.032530        -0.096457
 O         2.152481         0.175227        -1.245941
 C         3.288577         0.543188        -0.462991
 C         2.493528         0.933007         0.761508
 O         2.292573         1.972773         1.625659
 H         5.256379        -1.178935         1.625831
 H         5.368350         0.552444         1.266636
 H         4.312421        -0.065443         2.686802
 H         1.962852        -2.149924         0.385117
 H         1.377926        -1.118180         1.649894
 H        -0.358293        -0.315022         0.915038
 H        -0.484208         0.989634        -0.359090
 H        -0.386744        -0.754958        -0.950336
 H         4.239812         0.782038        -0.989882
 H         2.001401         2.840921         1.329936
