19
Iteration:  3384
 C         4.720195        -0.419397         1.632471
 C         3.381119        -0.273773         0.927992
 C         2.138885        -1.170029         0.799127
 C         1.474337        -0.060163         0.011616
 C        -0.045620         0.081911        -0.129069
 O         2.174788         0.092622        -1.180160
 C         3.237807         0.585352        -0.415954
 C         2.419493         0.937590         0.736717
 O         2.163504         2.040817         1.561558
 H         5.187286        -1.352083         1.294205
 H         5.433489         0.559154         1.518385
 H         4.623690        -0.547182         2.783429
 H         2.337575        -2.174724         0.259370
 H         1.722835        -1.214776         1.842542
 H        -0.457754         0.313490         0.819878
 H        -0.421602         0.822531        -0.732792
 H        -0.275587        -0.900563        -0.512772
 H         4.030557         1.060990        -0.940780
 H         1.351076         2.380089         1.301970
