19
Iteration:  4472
 C         4.619177        -0.388525         1.743132
 C         3.338785        -0.270667         0.883550
 C         2.251172        -1.310285         0.691635
 C         1.411186        -0.049392         0.027725
 C        -0.080581        -0.058663        -0.067546
 O         2.121856         0.145097        -1.159376
 C         3.216289         0.640792        -0.407839
 C         2.435842         0.987640         0.791659
 O         2.282813         2.093100         1.499519
 H         5.083931        -1.351360         1.447151
 H         5.291994         0.431994         1.556205
 H         4.510488        -0.400892         2.845046
 H         2.626391        -2.012750         0.007972
 H         1.758086        -1.607957         1.607063
 H        -0.522691        -0.476654         0.827957
 H        -0.551102         0.909850        -0.289623
 H        -0.217426        -0.775752        -0.912223
 H         3.939575         1.236676        -1.021371
 H         2.159580         2.887021         1.035470
