19
Iteration:  1056charge 0 multiplicity 1
 C         4.529612        -0.418931         1.811301
 C         3.345215        -0.248086         0.863725
 C         2.159227        -1.225113         0.607961
 C         1.418561         0.054047         0.039249
 C        -0.066535        -0.096846        -0.034369
 O         2.167000         0.183484        -1.231252
 C         3.261757         0.627111        -0.506741
 C         2.475539         0.964358         0.740357
 O         2.341427         2.024537         1.621896
 H         4.851289        -1.508587         1.594576
 H         5.355141         0.336847         1.563069
 H         4.313100        -0.377722         2.923178
 H         2.085687        -2.152047         0.093602
 H         1.880335        -1.367139         1.652095
 H        -0.362903        -0.377816         0.977568
 H        -0.590843         0.807057        -0.294332
 H        -0.299201        -0.911179        -0.714181
 H         4.166532         1.013611        -0.964991
 H         1.848892         2.597341         1.149615
