19
Iteration:  2632
 C         4.614302        -0.206281         1.776034
 C         3.323783        -0.333360         0.904268
 C         2.113473        -1.226670         0.727114
 C         1.444758        -0.095424         0.030657
 C        -0.064789        -0.054798        -0.107482
 O         2.074519         0.177294        -1.253801
 C         3.278469         0.549144        -0.425652
 C         2.469949         0.936618         0.731851
 O         2.341509         2.016271         1.594640
 H         5.058906        -1.189157         1.760112
 H         5.196847         0.458002         1.146341
 H         4.326012         0.027262         2.801894
 H         2.203666        -2.147754         0.206724
 H         1.651032        -1.354984         1.700592
 H        -0.496574        -0.355741         0.860865
 H        -0.501114         0.907345        -0.455193
 H        -0.355463        -0.747246        -1.011298
 H         4.151972         0.976285        -0.850260
 H         2.805357         2.756229         1.236987
