19
Iteration:  4020
 C         4.656513        -0.412333         1.665620
 C         3.407705        -0.182841         0.902370
 C         2.158709        -1.172839         0.740523
 C         1.390375        -0.102969         0.016778
 C        -0.052500         0.011151        -0.090005
 O         2.171377         0.029553        -1.249158
 C         3.243743         0.604139        -0.356922
 C         2.443986         0.911689         0.856470
 O         2.221288         2.105376         1.519194
 H         5.238353        -1.055097         1.064671
 H         5.220490         0.540209         1.772187
 H         4.488219        -0.733112         2.681707
 H         2.142028        -2.215068         0.257797
 H         1.954196        -1.499896         1.818865
 H        -0.433331         0.081477         0.955876
 H        -0.476675         0.917914        -0.576681
 H        -0.545708        -0.814403        -0.706255
 H         4.122446         1.142608        -0.830430
 H         1.884182         2.862419         0.914603
