19
Iteration:  1227charge 0 multiplicity 1
 C         4.561904        -0.431691         1.755705
 C         3.367411        -0.288781         0.836291
 C         2.168428        -1.231546         0.616885
 C         1.406518        -0.065804        -0.018452
 C        -0.149832        -0.069117        -0.021149
 O         2.195533         0.228557        -1.246670
 C         3.313780         0.688649        -0.409729
 C         2.418973         0.927073         0.826437
 O         2.297549         2.042573         1.613208
 H         4.849680        -1.475464         1.667690
 H         5.425391         0.239828         1.462237
 H         4.474969        -0.240597         2.874124
 H         2.225688        -2.241310         0.094114
 H         1.767473        -1.477496         1.583923
 H        -0.673667        -0.366841         0.957756
 H        -0.464849         0.853025        -0.494757
 H        -0.382708        -0.870991        -0.743333
 H         4.130398         1.223823        -0.851645
 H         2.570518         2.937008         1.044095
