19
Iteration:   942charge 0 multiplicity 1
 C         4.615310        -0.449611         1.712462
 C         3.340976        -0.252307         0.864723
 C         2.148576        -1.228831         0.744129
 C         1.463068        -0.070225         0.058406
 C        -0.060795         0.045424         0.033887
 O         2.236869         0.120255        -1.308454
 C         3.298386         0.668579        -0.470155
 C         2.377373         0.947343         0.746643
 O         2.176351         2.030677         1.597503
 H         5.380913        -1.020897         1.029029
 H         5.129907         0.432374         2.105312
 H         4.450477        -1.200451         2.578315
 H         2.148701        -2.235518         0.272689
 H         1.638385        -1.370158         1.662658
 H        -0.686843         0.113879         0.914221
 H        -0.197713         1.003676        -0.560803
 H        -0.437769        -0.725362        -0.656373
 H         4.239581         0.999348        -0.847666
 H         2.384385         2.924022         1.086272
