19
Iteration:  4589
 C         4.666250        -0.407986         1.599338
 C         3.391423        -0.256745         0.878981
 C         2.180417        -1.272905         0.748197
 C         1.398172        -0.138154         0.044862
 C        -0.085689        -0.026121        -0.101804
 O         2.189562         0.073937        -1.170321
 C         3.262705         0.697267        -0.411129
 C         2.396448         0.982343         0.768687
 O         2.169454         2.102003         1.591753
 H         5.250256        -1.135157         1.124047
 H         5.160015         0.582044         1.772280
 H         4.536080        -0.714378         2.626048
 H         2.557396        -2.071391         0.116483
 H         1.942193        -1.582966         1.730586
 H        -0.419019         0.328450         0.848930
 H        -0.317942         0.850506        -0.762997
 H        -0.641076        -0.905165        -0.423485
 H         4.089641         1.253565        -0.862502
 H         2.433171         2.903568         1.254811
