19
Iteration:  3539
 C         4.648262        -0.419785         1.610526
 C         3.346978        -0.198673         0.850191
 C         2.114654        -1.103093         0.855479
 C         1.463830        -0.022325         0.075306
 C        -0.030009        -0.014586        -0.132313
 O         2.169993         0.015029        -1.243161
 C         3.278501         0.568060        -0.507994
 C         2.447460         1.027725         0.697190
 O         2.200803         2.021727         1.720474
 H         5.263513        -1.214522         1.256909
 H         5.265548         0.492227         1.495561
 H         4.279140        -0.666053         2.635881
 H         2.230365        -2.129616         0.369169
 H         1.737429        -1.223027         1.933006
 H        -0.511296        -0.076965         0.805545
 H        -0.333245         0.733813        -0.840064
 H        -0.173686        -1.002560        -0.533452
 H         4.154419         0.976618        -0.927807
 H         1.777159         2.734784         1.280781
