19
Iteration:  2513charge 0 multiplicity 1
 C         4.700360        -0.395602         1.553440
 C         3.286357        -0.275249         0.998719
 C         2.141011        -1.264267         0.795875
 C         1.432001        -0.181906         0.047006
 C        -0.029019         0.081433        -0.134086
 O         2.241999        -0.003918        -1.183084
 C         3.222015         0.591377        -0.414264
 C         2.420416         1.039465         0.746534
 O         2.128342         2.171440         1.604325
 H         5.400862        -0.868709         0.844871
 H         5.241356         0.629906         1.664527
 H         4.659920        -1.025802         2.390395
 H         2.414139        -2.100035         0.118115
 H         1.581170        -1.591629         1.700645
 H        -0.352578         0.269522         0.846127
 H        -0.262167         0.914868        -0.776684
 H        -0.588175        -0.717594        -0.624406
 H         4.138033         1.010953        -0.829141
 H         2.614331         2.912090         1.305196
