19
Iteration:  1312charge 0 multiplicity 1
 C         4.615669        -0.390387         1.601909
 C         3.365576        -0.222198         0.859021
 C         2.174216        -1.218319         0.795187
 C         1.424855        -0.064175         0.060986
 C         0.016091         0.110052        -0.234112
 O         2.164484         0.105292        -1.179097
 C         3.237147         0.580742        -0.437687
 C         2.431566         0.918008         0.759988
 O         2.211635         1.953531         1.691008
 H         5.092110        -1.230497         1.127873
 H         5.286736         0.609713         1.610230
 H         4.501995        -0.771502         2.638951
 H         2.287938        -2.122482         0.220934
 H         1.824236        -1.367368         1.851053
 H        -0.412738         0.196768         0.778641
 H        -0.237627         1.072888        -0.628804
 H        -0.452022        -0.655584        -0.824046
 H         3.971374         1.256582        -0.783418
 H         1.797169         2.758729         1.448405
