19
Iteration:  3150charge 0 multiplicity 1
 C         4.729348        -0.393220         1.671642
 C         3.382357        -0.310812         0.898627
 C         2.182094        -1.256664         0.762728
 C         1.439220        -0.062158         0.030128
 C        -0.094632         0.040547        -0.069115
 O         2.207320         0.150411        -1.237186
 C         3.246169         0.558225        -0.390557
 C         2.388891         0.890118         0.764446
 O         2.123311         2.121275         1.539270
 H         5.345589        -1.244577         1.174790
 H         5.163556         0.676887         1.735448
 H         4.541000        -0.696438         2.706764
 H         2.511153        -2.196128         0.194927
 H         1.652387        -1.423464         1.717952
 H        -0.465767         0.410591         0.875664
 H        -0.500760         0.812957        -0.749731
 H        -0.558850        -0.862322        -0.281824
 H         4.021616         1.094129        -0.817620
 H         2.572051         2.748229         1.084891
