19
Iteration:  3812charge 0 multiplicity 1
 C         4.682014        -0.326189         1.757870
 C         3.370073        -0.307374         0.961622
 C         2.226858        -1.291876         0.653856
 C         1.414908        -0.080077         0.038935
 C        -0.085632         0.009091        -0.052353
 O         2.057149         0.134821        -1.240348
 C         3.208427         0.602963        -0.392633
 C         2.458958         0.880698         0.804173
 O         2.293293         2.091658         1.502397
 H         5.318717        -1.150777         1.417449
 H         5.179314         0.729199         1.746914
 H         4.462862        -0.336869         2.856739
 H         2.376021        -2.066009        -0.062899
 H         1.699274        -1.587256         1.530740
 H        -0.526071         0.159049         0.891443
 H        -0.176729         0.915042        -0.674174
 H        -0.594464        -0.739554        -0.762074
 H         4.086954         1.116358        -0.826044
 H         2.115939         2.745621         0.924486
