19
Iteration:  2055charge 0 multiplicity 1
 C         4.596624        -0.276801         1.709924
 C         3.347037        -0.308177         0.901456
 C         2.114880        -1.201950         0.802866
 C         1.416903         0.036277         0.026593
 C        -0.086314        -0.002780        -0.011972
 O         2.161888         0.190200        -1.311884
 C         3.312712         0.523400        -0.459213
 C         2.477609         0.882456         0.728200
 O         2.266453         1.951728         1.599198
 H         5.052866        -1.241491         1.679699
 H         5.335000         0.549645         1.404246
 H         4.437026        -0.087123         2.762227
 H         2.270142        -2.092844         0.218007
 H         1.780806        -1.421032         1.832221
 H        -0.651763        -0.388328         0.795951
 H        -0.583102         0.934620        -0.358678
 H        -0.272374        -0.781141        -0.799480
 H         4.159030         1.090141        -0.973115
 H         2.323401         2.596071         0.957680
