19
Iteration:   655
 C         4.655043        -0.300409         1.549402
 C         3.252088        -0.322464         0.986083
 C         2.048640        -1.292707         0.791797
 C         1.460758        -0.094939         0.039300
 C        -0.017844         0.016591        -0.262207
 O         2.140574         0.068010        -1.199523
 C         3.218009         0.686432        -0.353427
 C         2.401496         0.942359         0.797303
 O         2.433022         2.047453         1.667967
 H         5.367086        -1.086665         1.353789
 H         5.151869         0.694021         1.109558
 H         4.691936        -0.088403         2.649432
 H         2.151863        -2.269101         0.204521
 H         1.487362        -1.412736         1.786126
 H        -0.832397         0.084739         0.535536
 H        -0.207810         0.897652        -0.870186
 H        -0.231959        -0.848950        -0.930682
 H         4.200713         1.061982        -0.608016
 H         1.688317         2.755333         1.196218
