19
Iteration:  4086charge 0 multiplicity 1
 C         4.665003        -0.399375         1.673816
 C         3.307450        -0.210453         0.830830
 C         2.124249        -1.211650         0.873810
 C         1.433919        -0.125216         0.047739
 C         0.004014        -0.052840        -0.196649
 O         2.137274         0.030981        -1.246819
 C         3.195647         0.677211        -0.439648
 C         2.418087         1.027286         0.744434
 O         2.284910         2.074862         1.646895
 H         5.336937        -1.190711         1.442344
 H         5.308933         0.470997         1.444144
 H         4.475946        -0.422807         2.746755
 H         2.165563        -2.273606         0.508459
 H         1.934358        -1.350672         1.996291
 H        -0.618472        -0.295492         0.720539
 H        -0.361992         0.964845        -0.405214
 H        -0.374166        -0.781079        -0.952753
 H         3.969975         1.135513        -1.066942
 H         2.482090         2.848260         1.243765
