19
Iteration:  3323charge 0 multiplicity 1
 C         4.690782        -0.325931         1.741617
 C         3.406515        -0.285729         0.886808
 C         2.146473        -1.185519         0.769112
 C         1.373466        -0.103270         0.049001
 C        -0.069098        -0.008528        -0.134104
 O         2.119577         0.079684        -1.269621
 C         3.201711         0.592861        -0.448165
 C         2.459925         0.947536         0.760723
 O         2.253919         2.084664         1.629715
 H         5.476828        -0.958228         1.275877
 H         5.121987         0.585091         1.915389
 H         4.402322        -0.696266         2.720956
 H         2.225982        -2.104941         0.215289
 H         1.869911        -1.531035         1.757330
 H        -0.702421        -0.088087         0.797725
 H        -0.303161         0.881146        -0.873939
 H        -0.464329        -0.920345        -0.667290
 H         4.022046         1.118365        -1.058992
 H         2.711136         2.767243         1.149372
