19
Iteration:  4180
 C         4.710566        -0.388264         1.727499
 C         3.346904        -0.230829         0.900185
 C         2.187914        -1.201393         0.709805
 C         1.403615        -0.069480         0.069623
 C        -0.053533         0.031976        -0.042012
 O         2.197920         0.057984        -1.223685
 C         3.216652         0.589909        -0.497642
 C         2.460915         0.915548         0.725128
 O         2.136953         2.080242         1.606841
 H         5.402093        -1.078171         1.232571
 H         5.325757         0.523556         1.848280
 H         4.444242        -0.728550         2.704519
 H         2.151875        -2.160978         0.179369
 H         1.953386        -1.469926         1.692100
 H        -0.523039         0.292506         0.887899
 H        -0.169096         0.905155        -0.717807
 H        -0.576409        -0.838726        -0.545210
 H         4.166587         0.983129        -0.988922
 H         2.044189         2.848373         0.958988
