19
Iteration:  4952charge 0 multiplicity 1
 C         4.594424        -0.348131         1.663949
 C         3.336026        -0.295168         0.873305
 C         2.202588        -1.270063         0.795919
 C         1.418802         0.002838         0.018042
 C         0.015479        -0.011428        -0.041103
 O         2.193771         0.150560        -1.226303
 C         3.197724         0.697283        -0.465500
 C         2.409574         0.902360         0.734091
 O         2.239779         1.965419         1.577542
 H         5.340890        -1.014182         1.310058
 H         5.196959         0.582176         1.760480
 H         4.191360        -0.312158         2.672083
 H         2.215941        -2.102287         0.128939
 H         1.872098        -1.484401         1.869036
 H        -0.317456         0.184784         1.023558
 H        -0.567386         0.552236        -0.727623
 H        -0.292766        -1.028036        -0.136497
 H         4.149535         1.146793        -0.889228
 H         2.036789         2.744420         0.913065
