19
Iteration:  4210
 C         4.677390        -0.368105         1.548736
 C         3.321992        -0.188468         0.890706
 C         2.200348        -1.215882         0.879696
 C         1.431965        -0.056218         0.049225
 C        -0.018597         0.059386        -0.158080
 O         2.186789         0.059485        -1.159139
 C         3.267295         0.551046        -0.416418
 C         2.408772         0.935361         0.752111
 O         2.119274         2.014266         1.577959
 H         5.254770        -1.145966         0.939518
 H         5.284474         0.416287         1.819979
 H         4.425540        -0.843423         2.560375
 H         2.309921        -2.236620         0.489080
 H         1.898733        -1.141679         1.967808
 H        -0.608086         0.130643         0.704300
 H        -0.321223         0.840336        -0.839832
 H        -0.366702        -0.768569        -0.728853
 H         4.041340         1.264052        -0.885499
 H         2.565919         2.954745         1.214221
