19
Iteration:  1471charge 0 multiplicity 1
 C         4.643104        -0.307746         1.656470
 C         3.356404        -0.333829         0.912745
 C         2.154982        -1.263331         0.672931
 C         1.395387         0.017809         0.061314
 C        -0.097151         0.062104        -0.224547
 O         2.126693         0.121188        -1.180594
 C         3.233727         0.640949        -0.395673
 C         2.484258         0.900604         0.800855
 O         2.290652         1.971631         1.667686
 H         5.242356        -1.355010         1.772931
 H         5.288750         0.333721         1.083170
 H         4.580614         0.018706         2.741812
 H         2.396838        -2.219900         0.201521
 H         1.777475        -1.573091         1.644233
 H        -0.754424         0.027993         0.647469
 H        -0.339943         0.939982        -0.876177
 H        -0.242990        -0.829512        -0.847603
 H         4.096698         1.074374        -0.835503
 H         2.084372         2.756527         1.362925
