19
Iteration:   320charge 0 multiplicity 1
 C         4.705944        -0.463153         1.528591
 C         3.417154        -0.282789         0.871533
 C         2.145269        -1.242637         0.791174
 C         1.386972        -0.027191         0.121466
 C        -0.129683         0.134053        -0.176868
 O         2.330968         0.000921        -1.100213
 C         3.256346         0.565254        -0.345865
 C         2.432376         1.006485         0.834949
 O         2.033640         2.148469         1.435304
 H         5.222662        -1.392052         1.151529
 H         5.326170         0.347384         1.336064
 H         4.565895        -0.595585         2.623862
 H         2.295566        -2.142615         0.021704
 H         1.804505        -1.607916         1.771122
 H        -0.625542         0.326017         0.797668
 H        -0.234382         1.071791        -0.696267
 H        -0.633367        -0.662713        -0.724073
 H         4.151041         0.944964        -0.822618
 H         2.573988         2.302793         2.169749
