19
Iteration:  3317charge 0 multiplicity 1
 C         4.671821        -0.367760         1.732253
 C         3.363442        -0.280091         0.840424
 C         2.181197        -1.254195         0.813028
 C         1.375693        -0.113746         0.071280
 C        -0.089424        -0.033025        -0.128615
 O         2.147076         0.134445        -1.267231
 C         3.187331         0.595053        -0.514303
 C         2.488155         0.982583         0.779846
 O         2.254808         2.085890         1.609265
 H         5.515811        -1.027899         1.401940
 H         4.946187         0.740921         2.089806
 H         4.288259        -0.644788         2.744717
 H         2.190931        -2.246465         0.228879
 H         1.832117        -1.346790         1.885799
 H        -0.644516        -0.050901         0.789684
 H        -0.264588         0.838248        -0.676943
 H        -0.278243        -0.908119        -0.750889
 H         3.967835         1.034682        -1.093464
 H         2.731948         2.997938         1.269211
