19
Iteration:  2552charge 0 multiplicity 1
 C         4.718979        -0.471418         1.672720
 C         3.358570        -0.278242         0.912268
 C         2.122000        -1.257486         0.828151
 C         1.444025        -0.073885         0.085592
 C        -0.070723         0.006747        -0.075281
 O         2.187706         0.168751        -1.205111
 C         3.303123         0.616260        -0.414292
 C         2.466566         0.959824         0.733457
 O         2.184411         2.086412         1.472160
 H         5.413409        -1.109404         1.048153
 H         5.098970         0.515267         1.777025
 H         4.339178        -0.692268         2.760992
 H         2.190053        -2.153277         0.185977
 H         1.581336        -1.387267         1.791727
 H        -0.613339         0.215155         0.895110
 H        -0.228842         0.977737        -0.643809
 H        -0.564922        -0.979523        -0.457608
 H         4.151610         1.115811        -0.988240
 H         1.432702         2.653741         0.937716
