19
Iteration:  2100
 C         4.550792        -0.481796         1.714414
 C         3.399839        -0.205758         0.857721
 C         2.329932        -1.272636         0.683880
 C         1.392646        -0.103802         0.116455
 C        -0.048280         0.075579        -0.079293
 O         2.161683         0.023233        -1.266184
 C         3.187137         0.610520        -0.398861
 C         2.362795         0.958673         0.815937
 O         2.284008         2.170418         1.545844
 H         5.133322        -1.295069         1.393225
 H         5.259612         0.415007         1.806594
 H         4.301686        -0.753050         2.784985
 H         2.434766        -2.102249        -0.047904
 H         1.899987        -1.511605         1.646413
 H        -0.386331         0.074386         0.947494
 H        -0.343035         1.037795        -0.576048
 H        -0.580501        -0.764273        -0.575578
 H         3.960007         1.310745        -0.916795
 H         1.950837         2.779537         1.030088
