19
Iteration:   631
 C         4.645717        -0.341758         1.630420
 C         3.374793        -0.247553         0.888539
 C         2.115213        -1.185407         0.832239
 C         1.409642        -0.038011         0.046401
 C        -0.130346         0.017668        -0.240891
 O         2.163022         0.125002        -1.193515
 C         3.264759         0.509780        -0.414416
 C         2.429554         0.927710         0.802454
 O         2.349094         2.008655         1.644100
 H         5.384735        -1.074217         1.208575
 H         5.222590         0.736773         1.478407
 H         4.606883        -0.475938         2.733094
 H         2.195007        -2.128443         0.284975
 H         1.749296        -1.323403         1.917972
 H        -0.949719        -0.011850         0.531310
 H        -0.324940         0.960556        -0.793099
 H        -0.308022        -0.759570        -1.015416
 H         4.140995         0.971353        -0.906537
 H         1.639995         2.513649         1.312243
