19
Iteration:   517
 C         4.615386        -0.468897         1.666110
 C         3.328944        -0.254048         0.890456
 C         2.213964        -1.256813         0.737382
 C         1.385833        -0.148774         0.026139
 C        -0.162317         0.012354        -0.114688
 O         2.253735         0.108582        -1.241731
 C         3.244604         0.659366        -0.380257
 C         2.482796         1.007042         0.805746
 O         2.239944         2.108849         1.600438
 H         5.151781        -1.439846         1.263491
 H         5.225530         0.426711         1.460072
 H         4.522164        -0.512528         2.817734
 H         2.354445        -2.242769         0.275628
 H         1.783653        -1.329438         1.676244
 H        -0.689421         0.101744         0.839682
 H        -0.303982         0.973996        -0.658917
 H        -0.579351        -0.787457        -0.753981
 H         4.236977         1.001122        -0.729322
 H         1.949115         2.986261         0.992849
