19
Iteration:  1418
 C         4.461635        -0.519543         1.741091
 C         3.351803        -0.166872         0.849647
 C         2.168396        -1.174967         0.667179
 C         1.408588        -0.039102         0.066554
 C        -0.036554        -0.112657        -0.039086
 O         2.215606         0.135155        -1.254025
 C         3.272905         0.701690        -0.506773
 C         2.413636         0.979710         0.786488
 O         2.356773         2.063754         1.646558
 H         4.901543        -1.487845         1.405780
 H         5.312214         0.098408         1.776209
 H         4.080276        -0.583222         2.728158
 H         2.451681        -1.914751        -0.069179
 H         1.868306        -1.718629         1.603775
 H        -0.485689        -0.412441         0.931929
 H        -0.458464         0.866781        -0.397614
 H        -0.425021        -0.887246        -0.750740
 H         4.078659         1.246622        -0.929893
 H         1.898000         2.857685         1.132055
