19
Iteration:  3353charge 0 multiplicity 1
 C         4.599668        -0.294300         1.532537
 C         3.281654        -0.276511         0.982133
 C         2.163171        -1.288293         0.761795
 C         1.404193        -0.118414         0.045245
 C        -0.083658         0.071637        -0.118663
 O         2.289589         0.070693        -1.193914
 C         3.243037         0.587610        -0.348283
 C         2.388130         0.957775         0.741972
 O         2.283581         2.073618         1.619896
 H         5.231567        -1.032314         1.095064
 H         5.148297         0.666108         1.338504
 H         4.592061        -0.609005         2.631712
 H         2.450714        -2.105880         0.136548
 H         1.856716        -1.711720         1.709535
 H        -0.600980         0.351120         0.799711
 H        -0.359210         0.816938        -0.865569
 H        -0.550934        -0.856001        -0.460827
 H         4.169034         0.961867        -0.809489
 H         1.798566         2.793539         0.947354
