19
Iteration:  3184
 C         4.595911        -0.408831         1.542763
 C         3.285778        -0.171307         0.967867
 C         2.184132        -1.157481         0.858916
 C         1.449283        -0.015465         0.098050
 C         0.022926         0.049127        -0.142654
 O         2.229060         0.007180        -1.234659
 C         3.254894         0.597942        -0.526909
 C         2.389870         1.002600         0.728177
 O         2.123151         1.978599         1.670320
 H         5.183942        -1.295884         1.087571
 H         5.483140         0.380129         1.445232
 H         4.551406        -0.596210         2.606837
 H         2.457640        -2.162238         0.378175
 H         1.550595        -1.413079         1.721150
 H        -0.428636         0.169268         0.826910
 H        -0.260528         0.776237        -0.880904
 H        -0.290790        -0.926284        -0.412017
 H         4.096182         1.114399        -0.970043
 H         2.676732         2.681370         1.406396
