19
Iteration:  3819charge 0 multiplicity 1
 C         4.660932        -0.288661         1.746017
 C         3.397648        -0.234698         0.977532
 C         2.193734        -1.256938         0.644716
 C         1.364206        -0.089717         0.067558
 C        -0.056123         0.006836        -0.080022
 O         2.038406         0.145021        -1.217063
 C         3.302167         0.560789        -0.335541
 C         2.378587         0.886673         0.747534
 O         2.323558         2.039436         1.493638
 H         5.239882        -1.086029         1.302422
 H         5.343419         0.657721         1.602044
 H         4.547799        -0.575295         2.772243
 H         2.423364        -2.067049        -0.150655
 H         1.714226        -1.679179         1.557008
 H        -0.655121         0.010257         0.879607
 H        -0.129643         0.969803        -0.629114
 H        -0.617941        -0.761217        -0.626814
 H         4.274548         1.020210        -0.700066
 H         2.028933         2.806197         0.849149
