19
Iteration:  1766
 C         4.589398        -0.558842         1.711127
 C         3.356718        -0.242457         0.902814
 C         2.195273        -1.160100         0.661768
 C         1.422000        -0.046740         0.009774
 C        -0.074011        -0.081400         0.027698
 O         2.219011         0.126816        -1.267625
 C         3.276937         0.620221        -0.467104
 C         2.397826         0.968818         0.795880
 O         2.234089         2.171891         1.572487
 H         5.493358        -0.905677         1.108692
 H         4.909035         0.353903         2.133480
 H         4.352353        -1.219704         2.593220
 H         2.732436        -1.989403         0.090590
 H         1.637554        -1.559348         1.581898
 H        -0.294258        -0.162804         1.160910
 H        -0.595458         0.808060        -0.424812
 H        -0.534841        -0.927040        -0.553429
 H         4.026656         1.267455        -0.811251
 H         1.913637         2.826722         1.026970
