19
Iteration:  1336
 C         4.720342        -0.371574         1.541836
 C         3.274993        -0.232396         0.998987
 C         2.137090        -1.220655         0.678535
 C         1.380026        -0.050666         0.047093
 C        -0.135138         0.116690        -0.146977
 O         2.308327         0.020409        -1.251653
 C         3.286499         0.606994        -0.440759
 C         2.418406         0.920970         0.782482
 O         2.171909         2.011519         1.744716
 H         5.347064        -0.957218         0.866150
 H         5.060815         0.713840         1.778234
 H         4.826492        -0.999429         2.512033
 H         2.300227        -2.167108         0.159046
 H         1.581507        -1.285288         1.574606
 H        -0.658358         0.138967         0.812536
 H        -0.449084         1.034386        -0.566702
 H        -0.454737        -0.709004        -0.745906
 H         4.362312         0.670211        -0.681721
 H         2.269725         3.071782         1.364580
