19
Iteration:  4736charge 0 multiplicity 1
 C         4.630715        -0.235319         1.596049
 C         3.245320        -0.221882         0.950025
 C         2.181457        -1.225523         0.762590
 C         1.387602        -0.026864         0.047410
 C        -0.088905        -0.002793        -0.110865
 O         2.255264         0.043133        -1.252135
 C         3.187933         0.625487        -0.489086
 C         2.459720         0.933681         0.721874
 O         2.293156         1.935639         1.722338
 H         5.476986        -0.961779         1.243386
 H         5.007039         0.719770         1.386431
 H         4.411833        -0.510304         2.649599
 H         2.591653        -2.070938         0.299165
 H         1.519663        -1.517116         1.678304
 H        -0.609022        -0.046279         0.919977
 H        -0.200305         0.901452        -0.757039
 H        -0.481097        -0.961208        -0.561941
 H         3.911141         1.184640        -0.942116
 H         2.409670         2.694083         1.319749
