19
Iteration:  1856
 C         4.590291        -0.233937         1.578343
 C         3.249836        -0.231893         0.908999
 C         2.150836        -1.206917         0.749510
 C         1.365683        -0.013634         0.016373
 C        -0.040802         0.028138        -0.174255
 O         2.203280         0.064786        -1.233806
 C         3.272107         0.574355        -0.419399
 C         2.425831         0.922887         0.804229
 O         2.348270         1.918367         1.725701
 H         5.102370        -1.244080         1.504521
 H         5.288330         0.573988         1.122052
 H         4.580657         0.047965         2.582752
 H         2.392065        -2.171873         0.182441
 H         1.561397        -1.320224         1.781873
 H        -0.538420        -0.201787         0.821074
 H        -0.616731         0.948121        -0.409403
 H        -0.316665        -0.789090        -0.903261
 H         4.340189         0.797469        -0.727384
 H         2.076231         2.815086         1.105693
