19
Iteration:   171charge 0 multiplicity 1
 C         4.602474        -0.505410         1.606030
 C         3.312616        -0.206362         0.923360
 C         2.197814        -1.177207         0.758194
 C         1.450244         0.019099         0.093953
 C        -0.036401         0.027638        -0.106216
 O         2.189517         0.036654        -1.122038
 C         3.324626         0.521397        -0.458078
 C         2.502385         1.009440         0.754851
 O         2.151575         2.185851         1.496572
 H         5.111951        -1.301746         1.020977
 H         5.245640         0.464247         1.671154
 H         4.505984        -0.798174         2.681822
 H         2.248858        -2.097819         0.161074
 H         1.779116        -1.609386         1.696864
 H        -0.591657        -0.003077         0.861882
 H        -0.339443         0.887364        -0.707392
 H        -0.284466        -0.831197        -0.756253
 H         4.225981         0.670577        -1.025763
 H         1.256973         2.067709         2.028482
