19
Iteration:  2500charge 0 multiplicity 1
 C         4.694970        -0.393619         1.593892
 C         3.297647        -0.162109         0.926218
 C         2.191389        -1.282717         0.791812
 C         1.406148        -0.106301         0.078874
 C        -0.026570         0.057203        -0.154850
 O         2.181556         0.008454        -1.204924
 C         3.200239         0.608521        -0.405362
 C         2.429439         0.993253         0.808225
 O         2.152154         2.105212         1.568032
 H         5.202156        -1.095203         0.858260
 H         5.193092         0.565702         1.890030
 H         4.729255        -0.867856         2.636261
 H         2.301525        -2.183844         0.244882
 H         1.886788        -1.532431         1.820121
 H        -0.683441         0.222153         0.682842
 H         0.051106         1.026957        -0.735721
 H        -0.503057        -0.860089        -0.738942
 H         4.160967         0.786419        -0.990296
 H         2.850203         2.808837         1.351789
