19
Iteration:  3538charge 0 multiplicity 1
 C         4.647165        -0.427496         1.612323
 C         3.358905        -0.185529         0.849552
 C         2.110062        -1.092689         0.853947
 C         1.456671        -0.028484         0.072223
 C        -0.031548        -0.011380        -0.134188
 O         2.168192         0.012340        -1.247356
 C         3.277853         0.559215        -0.503420
 C         2.441025         1.023228         0.695186
 O         2.205618         2.020948         1.728593
 H         5.252516        -1.206390         1.250263
 H         5.277927         0.524571         1.513529
 H         4.264202        -0.657507         2.624557
 H         2.229265        -2.132968         0.360810
 H         1.777673        -1.229337         1.941863
 H        -0.485525        -0.102207         0.834282
 H        -0.303810         0.750275        -0.849020
 H        -0.193050        -1.056312        -0.552244
 H         4.168378         1.005636        -0.926119
 H         1.767643         2.789435         1.248230
