19
Iteration:   421charge 0 multiplicity 1
 C         4.524178        -0.296078         1.722342
 C         3.263676        -0.264899         0.951644
 C         2.219036        -1.343211         0.651144
 C         1.407291        -0.099016         0.076504
 C        -0.078548         0.081500        -0.077171
 O         2.242013         0.088715        -1.220322
 C         3.176677         0.592378        -0.419172
 C         2.386510         0.928677         0.737038
 O         2.388542         2.098384         1.581599
 H         5.093662        -1.105973         1.307671
 H         5.095610         0.619948         1.680113
 H         4.291077        -0.637751         2.710961
 H         2.490713        -2.114038        -0.133637
 H         1.875357        -1.772499         1.651344
 H        -0.498576        -0.062686         0.910154
 H        -0.449122         1.015193        -0.537891
 H        -0.410261        -0.738012        -0.724251
 H         4.048672         1.085913        -0.894087
 H         2.448145         2.783847         1.035956
