19
Iteration:  1246charge 0 multiplicity 1
 C         4.498010        -0.436190         1.674216
 C         3.290653        -0.287865         0.856725
 C         2.169591        -1.272805         0.643521
 C         1.410681        -0.045807        -0.002557
 C        -0.042727        -0.086577        -0.051611
 O         2.248242         0.176247        -1.294575
 C         3.241124         0.692331        -0.371776
 C         2.416403         0.991527         0.740571
 O         2.325141         2.072696         1.685060
 H         4.782010        -1.446703         1.932409
 H         5.413829         0.277953         1.455330
 H         4.290196        -0.110183         2.709347
 H         2.329137        -2.039957        -0.065725
 H         1.647855        -1.701991         1.521102
 H        -0.179399        -0.321270         1.004826
 H        -0.596851         0.828020        -0.061496
 H        -0.547229        -0.895929        -0.525550
 H         4.158975         1.198821        -0.666836
 H         2.582403         2.836593         1.065325
