19
Iteration:  2168
 C         4.637218        -0.339394         1.566412
 C         3.289532        -0.189276         0.937022
 C         2.093107        -1.166692         0.806482
 C         1.417108        -0.104380         0.022570
 C        -0.121751         0.005455        -0.154760
 O         2.275486         0.015063        -1.159861
 C         3.232559         0.610773        -0.432753
 C         2.462493         0.984280         0.733445
 O         2.291859         2.019146         1.643414
 H         5.051144        -1.093134         0.878986
 H         5.226889         0.511117         1.726949
 H         4.590121        -1.033961         2.530930
 H         2.155722        -2.139052         0.160279
 H         1.803194        -1.245765         1.861649
 H        -0.653389         0.035596         0.820465
 H        -0.360970         0.849347        -0.781189
 H        -0.465105        -0.841996        -0.665313
 H         4.121769         1.008097        -0.792694
 H         2.191239         3.050488         1.278521
