19
Iteration:   515charge 0 multiplicity 1
 C         4.625971        -0.464452         1.662762
 C         3.336331        -0.247876         0.891547
 C         2.217410        -1.241797         0.761098
 C         1.362743        -0.145370         0.003869
 C        -0.166745         0.006354        -0.120002
 O         2.249917         0.093575        -1.256235
 C         3.247461         0.660506        -0.379844
 C         2.487509         1.012888         0.786959
 O         2.236513         2.112027         1.626058
 H         5.164023        -1.410168         1.300885
 H         5.280263         0.366678         1.457622
 H         4.510694        -0.558720         2.796563
 H         2.289774        -2.227647         0.248347
 H         1.803150        -1.304571         1.751125
 H        -0.694106         0.078368         0.869451
 H        -0.280679         0.925566        -0.698831
 H        -0.611608        -0.753177        -0.801252
 H         4.265363         1.004433        -0.684818
 H         2.021597         2.887040         1.059880
