19
Iteration:  1925
 C         4.562800        -0.502441         1.718247
 C         3.347922        -0.235030         0.909725
 C         2.219446        -1.223060         0.680775
 C         1.482021        -0.109931         0.001779
 C        -0.054289        -0.014581         0.068258
 O         2.221341         0.087707        -1.294822
 C         3.239158         0.661277        -0.421880
 C         2.374553         0.984656         0.762984
 O         2.223143         2.170041         1.558393
 H         5.189997        -1.144744         1.155722
 H         5.137637         0.471705         1.839203
 H         4.419042        -0.916920         2.740919
 H         2.498058        -1.971238        -0.160303
 H         1.718554        -1.671709         1.605836
 H        -0.375425         0.060880         1.066534
 H        -0.468098         0.958578        -0.373002
 H        -0.514589        -0.868610        -0.382181
 H         4.215660         0.764866        -0.862368
 H         1.867389         2.727998         1.002714
