19
Iteration:  4166charge 0 multiplicity 1
 C         4.593430        -0.359042         1.694202
 C         3.387599        -0.223133         0.905449
 C         2.243294        -1.285798         0.744392
 C         1.462284        -0.082524         0.023071
 C        -0.073322         0.073972        -0.024314
 O         2.132404         0.092790        -1.241166
 C         3.319585         0.570516        -0.402005
 C         2.400551         0.974926         0.768877
 O         2.219781         2.031432         1.521044
 H         5.224031        -1.157310         1.225668
 H         5.100629         0.492496         1.786876
 H         4.381124        -0.628582         2.770813
 H         2.590711        -2.041430         0.050796
 H         1.610460        -1.542792         1.634759
 H        -0.432874         0.172431         0.986389
 H        -0.568478         0.820581        -0.643708
 H        -0.546021        -0.812908        -0.399158
 H         4.129483         1.102986        -0.962323
 H         1.736137         2.837595         1.045837
