19
Iteration:  1937charge 0 multiplicity 1
 C         4.630742        -0.452454         1.654318
 C         3.270002        -0.272518         0.981050
 C         2.186764        -1.239207         0.643574
 C         1.395005        -0.005906        -0.020572
 C        -0.075344        -0.042872         0.066864
 O         2.255083         0.117974        -1.267613
 C         3.275753         0.596004        -0.413550
 C         2.466388         0.973591         0.806164
 O         2.198674         2.143554         1.529596
 H         5.294724        -1.105245         1.132358
 H         5.087054         0.510970         1.910037
 H         4.395891        -1.010516         2.653345
 H         2.370519        -2.227865         0.069073
 H         1.661354        -1.551069         1.586557
 H        -0.289493        -0.071605         1.114877
 H        -0.538511         0.842394        -0.477872
 H        -0.391007        -1.007398        -0.310395
 H         4.242927         1.031999        -0.825873
 H         1.973318         2.989811         0.830468
