19
Iteration:  3982
 C         4.536784        -0.392327         1.762533
 C         3.364311        -0.207340         0.854174
 C         2.250654        -1.194003         0.744154
 C         1.493858        -0.090682         0.075542
 C        -0.011569         0.012387        -0.004055
 O         2.133028         0.081557        -1.281145
 C         3.228003         0.593385        -0.527315
 C         2.502099         0.956305         0.750469
 O         2.117177         2.053987         1.555651
 H         5.055493        -1.306029         1.305455
 H         5.232675         0.449433         1.918876
 H         4.208528        -0.740115         2.778941
 H         2.303848        -2.056828         0.094150
 H         1.864436        -1.279550         1.726806
 H        -0.202067         0.054914         1.092960
 H        -0.380866         0.856902        -0.599450
 H        -0.431828        -0.938437        -0.308904
 H         4.115299         1.015397        -0.962844
 H         2.712384         2.902692         1.180741
