19
Iteration:  4793charge 0 multiplicity 1
 C         4.669367        -0.508390         1.712764
 C         3.402223        -0.176942         0.928627
 C         2.214148        -1.218861         0.714551
 C         1.443664        -0.010587         0.108681
 C        -0.018508        -0.085774        -0.044157
 O         2.073880         0.167244        -1.210863
 C         3.265450         0.729410        -0.446107
 C         2.402733         0.951539         0.747192
 O         2.206764         2.008715         1.498556
 H         5.204472        -1.324719         1.091429
 H         5.336680         0.299987         1.935187
 H         4.281718        -0.689241         2.740901
 H         2.440998        -2.077632         0.065631
 H         1.763671        -1.588006         1.646944
 H        -0.413110         0.290692         0.901685
 H        -0.378368         0.648647        -0.864711
 H        -0.249559        -1.142567        -0.371640
 H         4.172686         1.243420        -0.838133
 H         1.657571         2.624467         0.923081
