19
Iteration:  2142charge 0 multiplicity 1
 C         4.693602        -0.449788         1.613918
 C         3.325432        -0.351820         0.902332
 C         2.094449        -1.122788         0.861276
 C         1.470014         0.017888        -0.037270
 C        -0.047150        -0.030058        -0.070430
 O         2.192799         0.139244        -1.255279
 C         3.234217         0.512205        -0.411965
 C         2.483114         0.966284         0.771263
 O         2.188667         2.083182         1.605121
 H         5.438809        -0.902271         0.939886
 H         5.064586         0.660903         1.761008
 H         4.555143        -0.983522         2.556127
 H         2.167785        -2.077869         0.440071
 H         1.713474        -1.218046         1.861799
 H        -0.515052         0.070139         0.929175
 H        -0.496467         0.717450        -0.822923
 H        -0.205955        -0.996965        -0.682918
 H         4.223840         0.949194        -0.756366
 H         1.764465         2.978485         1.119341
