19
Iteration:  3875charge 0 multiplicity 1
 C         4.649125        -0.424859         1.638008
 C         3.371706        -0.158352         0.897809
 C         2.188680        -1.127865         0.904173
 C         1.430280        -0.032577         0.053434
 C        -0.094445        -0.071168        -0.204655
 O         2.167122         0.080065        -1.195796
 C         3.245001         0.569062        -0.467780
 C         2.374218         0.999298         0.691610
 O         2.282316         2.001532         1.632200
 H         5.200479        -1.123447         1.067091
 H         5.398280         0.486736         1.772686
 H         4.425279        -0.868790         2.567386
 H         2.281544        -2.264971         0.618476
 H         1.703549        -1.179940         1.880550
 H        -0.593778        -0.250715         0.755510
 H        -0.487995         0.936918        -0.397064
 H        -0.297930        -0.828151        -1.019318
 H         3.974272         1.189542        -1.038012
 H         2.089864         2.814105         1.152394
