19
Iteration:  1798
 C         4.596581        -0.481818         1.698118
 C         3.364484        -0.228922         0.840760
 C         2.216590        -1.224714         0.802906
 C         1.426560        -0.065671         0.176806
 C        -0.084826        -0.050690        -0.204364
 O         2.104352         0.188972        -1.157542
 C         3.237432         0.682424        -0.503753
 C         2.447040         0.946411         0.750687
 O         2.313709         2.048617         1.585381
 H         5.369538        -1.104944         1.153515
 H         5.008743         0.459779         1.907013
 H         4.373905        -1.057757         2.656320
 H         2.561701        -2.172292         0.286274
 H         1.832809        -1.474162         1.802094
 H        -0.873460        -0.201016         0.638465
 H        -0.231686         0.897664        -0.797358
 H        -0.180632        -0.996582        -0.814586
 H         3.986228         1.307907        -0.924641
 H         1.876222         2.880004         1.009886
