19
Iteration:  3411
 C         4.612530        -0.485269         1.684836
 C         3.390841        -0.165954         0.832476
 C         2.230329        -1.177913         0.794204
 C         1.458439        -0.095978         0.108834
 C        -0.097631         0.036731        -0.054897
 O         2.218334         0.043360        -1.247325
 C         3.262458         0.615666        -0.523100
 C         2.479415         1.007917         0.719757
 O         2.123137         2.047371         1.629130
 H         4.984066        -1.501028         1.363653
 H         5.293644         0.256772         1.809105
 H         4.240038        -0.536637         2.706492
 H         2.345803        -2.121690         0.360383
 H         1.979701        -1.188740         1.848952
 H        -0.685038        -0.032485         0.931410
 H        -0.299104         1.060082        -0.570529
 H        -0.335504        -0.777572        -0.772337
 H         4.087168         1.034406        -1.158727
 H         1.749217         2.791742         1.117987
