19
Iteration:  1317charge 0 multiplicity 1
 C         4.620418        -0.382597         1.574020
 C         3.366667        -0.219262         0.891338
 C         2.154002        -1.227723         0.833822
 C         1.435231        -0.043303         0.009421
 C         0.000306         0.114298        -0.208157
 O         2.178833         0.079708        -1.194182
 C         3.247696         0.580922        -0.402373
 C         2.416732         0.977606         0.745402
 O         2.203687         1.926250         1.708453
 H         5.204568        -1.176122         1.019894
 H         5.153688         0.489068         1.635031
 H         4.586399        -0.781873         2.606698
 H         2.382822        -2.080666         0.129537
 H         1.823923        -1.578721         1.806589
 H        -0.552935         0.159533         0.745423
 H        -0.222168         1.124806        -0.645455
 H        -0.501143        -0.689817        -0.795311
 H         4.062062         1.184008        -0.880719
 H         1.907119         2.908781         1.325732
