19
Iteration:  3325
 C         4.681898        -0.316236         1.743745
 C         3.419676        -0.280041         0.900319
 C         2.140339        -1.163053         0.755278
 C         1.384120        -0.092416         0.045358
 C        -0.070667        -0.003651        -0.143194
 O         2.108535         0.058710        -1.262777
 C         3.212264         0.594930        -0.428803
 C         2.443321         0.934331         0.756458
 O         2.251835         2.072619         1.635980
 H         5.490820        -0.968852         1.226721
 H         5.222776         0.631117         1.830081
 H         4.461845        -0.750121         2.700598
 H         2.260852        -2.131738         0.151578
 H         1.834187        -1.567538         1.740084
 H        -0.691673        -0.051235         0.789645
 H        -0.328808         0.857638        -0.867082
 H        -0.506074        -0.894031        -0.637097
 H         4.047281         1.132183        -1.007156
 H         2.763413         2.813882         1.046590
