19
Iteration:  2312charge 0 multiplicity 1
 C         4.727951        -0.390016         1.617048
 C         3.350086        -0.297790         0.990503
 C         2.257741        -1.332135         0.849098
 C         1.373369        -0.054968         0.051173
 C        -0.106462         0.078163        -0.207811
 O         2.103117         0.157234        -1.188621
 C         3.261003         0.595538        -0.442114
 C         2.479770         0.894385         0.790594
 O         2.231658         2.138080         1.563986
 H         5.345688        -1.171194         1.072534
 H         5.048985         0.604317         1.801377
 H         4.434057        -0.887656         2.642721
 H         2.313119        -2.227949         0.193316
 H         1.568869        -1.514127         1.708771
 H        -0.626643         0.192365         0.737875
 H        -0.209036         0.880903        -0.915364
 H        -0.381527        -0.915287        -0.601728
 H         4.176399         1.002389        -0.908962
 H         1.712030         2.657594         0.978739
