19
Iteration:  4827
 C         4.617703        -0.465773         1.604364
 C         3.333469        -0.193216         0.859366
 C         2.180997        -1.333667         0.737550
 C         1.422424        -0.034474         0.023176
 C        -0.044463        -0.101353        -0.019734
 O         2.208175         0.072561        -1.240547
 C         3.357395         0.699869        -0.397241
 C         2.344913         0.995914         0.698669
 O         2.164078         2.196706         1.638638
 H         5.158002        -1.388169         1.271268
 H         5.259391         0.408928         1.664791
 H         4.501462        -0.939382         2.600808
 H         2.490370        -2.276550         0.215767
 H         1.894242        -1.488306         1.726848
 H        -0.365972        -0.297599         0.997554
 H        -0.617119         0.837833        -0.347044
 H        -0.473212        -1.013363        -0.525507
 H         4.231939         1.374783        -0.757166
 H         2.269178         2.933391         1.197408
