19
Iteration:  3426charge 0 multiplicity 1
 C         4.541467        -0.460180         1.712662
 C         3.427606        -0.208799         0.844437
 C         2.243906        -1.189745         0.808730
 C         1.453721        -0.059196        -0.032894
 C         0.061905         0.000292        -0.074418
 O         2.131341         0.011646        -1.229166
 C         3.232975         0.638040        -0.463725
 C         2.357935         1.019963         0.718794
 O         2.181372         2.081786         1.639966
 H         5.132736        -1.346203         1.448177
 H         5.381966         0.329910         1.545906
 H         4.258350        -0.699767         2.721692
 H         2.422129        -2.192096         0.203673
 H         1.719066        -1.437880         1.780914
 H        -0.266044        -0.153277         0.989624
 H        -0.352068         1.005549        -0.233919
 H        -0.529561        -0.686218        -0.751692
 H         4.051244         1.079881        -0.938036
 H         2.199621         2.980387         0.988032
