19
Iteration:  3878charge 0 multiplicity 1
 C         4.640282        -0.421217         1.633858
 C         3.345613        -0.175494         0.889437
 C         2.223932        -1.122774         0.906956
 C         1.428167        -0.018593         0.098915
 C        -0.128529        -0.073475        -0.217587
 O         2.154977         0.069936        -1.202053
 C         3.265732         0.597786        -0.453558
 C         2.403611         1.010930         0.689718
 O         2.280001         1.979208         1.612032
 H         5.175586        -1.164980         0.987441
 H         5.375634         0.467932         1.787711
 H         4.435981        -0.858802         2.667554
 H         2.387194        -2.148625         0.604275
 H         1.710745        -1.152931         1.871649
 H        -0.580514        -0.235878         0.726511
 H        -0.522144         0.924995        -0.445112
 H        -0.321821        -0.808554        -1.053439
 H         4.019179         1.112469        -0.953663
 H         2.073528         2.770987         1.167494
