19
Iteration:   100
 C         4.729070        -0.344281         1.671691
 C         3.349114        -0.269161         0.929897
 C         2.183411        -1.239958         0.726214
 C         1.434688        -0.060313         0.082943
 C        -0.009455         0.093684        -0.129507
 O         2.122392         0.007509        -1.242770
 C         3.285412         0.372577        -0.471997
 C         2.403478         1.032657         0.714379
 O         2.090606         2.188462         1.706940
 H         5.222128        -1.255492         1.300054
 H         5.288174         0.509462         1.363864
 H         4.710596        -0.325016         2.753895
 H         2.358982        -2.035533         0.173808
 H         1.686696        -1.613436         1.552464
 H        -0.536202         0.207930         0.798700
 H        -0.172856         1.003539        -0.745173
 H        -0.467783        -0.697193        -0.729069
 H         4.190176         0.547003        -1.083560
 H         2.650647         2.760419         1.402665
