19
Iteration:  1436charge 0 multiplicity 1
 C         4.486243        -0.444932         1.691052
 C         3.286980        -0.286318         0.865095
 C         2.209275        -1.241577         0.710901
 C         1.438358        -0.031162        -0.076667
 C        -0.100673        -0.111010        -0.043552
 O         2.204670         0.208836        -1.263325
 C         3.289414         0.660722        -0.383871
 C         2.454550         1.046450         0.744059
 O         2.336892         2.016519         1.666299
 H         4.912008        -1.517380         1.551435
 H         5.301450         0.260089         1.392457
 H         4.328092        -0.169241         2.810288
 H         2.299739        -2.260317         0.259500
 H         1.675692        -1.191173         1.601585
 H        -0.405119        -0.387881         0.943080
 H        -0.691633         0.755619        -0.329663
 H        -0.407996        -0.948411        -0.664773
 H         4.194981         1.069005        -0.838153
 H         2.220622         2.941937         1.231081
