19
Iteration:  4070charge 0 multiplicity 1
 C         4.701531        -0.355226         1.588844
 C         3.397330        -0.266272         0.918576
 C         2.184233        -1.122684         0.837592
 C         1.371186        -0.067302         0.031181
 C        -0.125151        -0.028919        -0.217000
 O         2.191672         0.005413        -1.190019
 C         3.191981         0.591056        -0.415837
 C         2.407462         0.925882         0.824469
 O         2.290778         2.097213         1.635204
 H         5.209989        -1.274785         1.129771
 H         5.352537         0.605695         1.495288
 H         4.560959        -0.456703         2.691209
 H         2.264534        -2.110189         0.379109
 H         1.543765        -1.186243         1.674867
 H        -0.675286        -0.277734         0.682446
 H        -0.487005         0.925818        -0.632308
 H        -0.324478        -0.704287        -1.071158
 H         4.029465         1.129791        -0.822305
 H         2.123948         2.843743         1.035331
