19
Iteration:   678charge 0 multiplicity 1
 C         4.637579        -0.332988         1.615288
 C         3.302597        -0.199728         0.924953
 C         2.190162        -1.203284         0.760304
 C         1.378506        -0.099231         0.056929
 C        -0.145028         0.003302        -0.288307
 O         2.176512         0.066389        -1.220517
 C         3.270350         0.534001        -0.395788
 C         2.404276         0.996272         0.793478
 O         2.339278         2.056069         1.711407
 H         5.012099        -1.325055         1.401708
 H         5.513796         0.424590         1.348802
 H         4.495034        -0.390463         2.712509
 H         2.442045        -2.106844         0.055342
 H         1.805047        -1.502866         1.762721
 H        -0.546835         0.010862         0.763971
 H        -0.515681         0.961880        -0.667688
 H        -0.670859        -0.837587        -0.784968
 H         4.195611         0.965754        -0.728315
 H         2.412970         2.720128         1.175803
