19
Iteration:  4544charge 0 multiplicity 1
 C         4.671209        -0.274558         1.630146
 C         3.366118        -0.286537         0.891227
 C         2.199792        -1.257195         0.802497
 C         1.431684        -0.110836         0.013873
 C        -0.098435         0.002219        -0.152658
 O         2.124810         0.120742        -1.214435
 C         3.257793         0.549504        -0.468898
 C         2.475778         1.019501         0.706443
 O         2.260001         2.010843         1.712907
 H         5.309371        -1.066249         1.282716
 H         4.866769         0.844915         1.705803
 H         4.618612        -0.433396         2.720184
 H         2.208963        -2.181248         0.107636
 H         1.716232        -1.112460         1.754295
 H        -0.563914         0.235669         0.804582
 H        -0.309293         0.922929        -0.763467
 H        -0.473773        -0.943432        -0.564406
 H         4.117154         0.779008        -0.968348
 H         1.568493         2.400043         1.367554
