19
Iteration:    93
 C         4.719272        -0.326138         1.729257
 C         3.353468        -0.226081         0.944622
 C         2.145282        -1.262280         0.701246
 C         1.435651        -0.081275        -0.000531
 C        -0.053785         0.063358        -0.075444
 O         2.086263         0.035739        -1.242505
 C         3.305023         0.424016        -0.472799
 C         2.455998         1.000546         0.721288
 O         2.129435         2.174392         1.657295
 H         5.420420        -1.207296         1.456943
 H         5.342553         0.565675         1.547077
 H         4.493131        -0.367620         2.834315
 H         2.287028        -2.123659        -0.131778
 H         1.662227        -1.649164         1.642856
 H        -0.547148         0.067645         0.913301
 H        -0.196506         1.006472        -0.607041
 H        -0.487656        -0.751873        -0.678699
 H         4.204446         0.488194        -1.113804
 H         2.885647         2.765816         1.422092
