19
Iteration:  2690
 C         4.621078        -0.432885         1.607833
 C         3.326258        -0.210480         0.937631
 C         2.186582        -1.218686         0.873894
 C         1.461148        -0.121479         0.049287
 C        -0.039566         0.070084        -0.204837
 O         2.208356        -0.027069        -1.213937
 C         3.174644         0.675937        -0.440450
 C         2.420046         1.024330         0.749698
 O         2.273689         2.090836         1.614004
 H         5.210457        -1.054173         0.932455
 H         5.397879         0.360517         1.973751
 H         4.593302        -0.882066         2.564497
 H         2.374745        -2.115059         0.193378
 H         1.733159        -1.475435         1.872067
 H        -0.613849        -0.021740         0.771783
 H        -0.351950         1.036433        -0.634483
 H        -0.507044        -0.796764        -0.712762
 H         4.093171         1.078546        -0.988016
 H         1.417391         2.667451         1.243408
