19
Iteration:  1762charge 0 multiplicity 1
 C         4.574046        -0.553095         1.683954
 C         3.331180        -0.239779         0.960093
 C         2.215541        -1.214397         0.644712
 C         1.366699        -0.051954         0.009151
 C        -0.061036        -0.072972         0.068066
 O         2.247574         0.133614        -1.297754
 C         3.307317         0.623460        -0.440459
 C         2.399416         0.998599         0.768152
 O         2.232713         2.144057         1.571763
 H         5.358382        -0.885028         1.068865
 H         4.878324         0.406020         2.175457
 H         4.460431        -1.186996         2.654908
 H         2.614078        -2.044804         0.041401
 H         1.733759        -1.463136         1.527817
 H        -0.318055        -0.088301         1.126848
 H        -0.678778         0.822874        -0.295194
 H        -0.447136        -0.926629        -0.528299
 H         4.082553         1.304276        -0.869916
 H         1.894540         3.002663         0.877922
