19
Iteration:  3663
 C         4.583878        -0.406152         1.634146
 C         3.369756        -0.200126         0.867969
 C         2.140020        -1.171561         0.845654
 C         1.392279        -0.035728         0.126781
 C        -0.074237        -0.067775        -0.061933
 O         2.212678         0.104773        -1.234584
 C         3.294348         0.617789        -0.444350
 C         2.397473         0.946485         0.690182
 O         2.226935         2.047553         1.526946
 H         5.234874        -1.061073         0.953607
 H         5.014108         0.547444         1.790509
 H         4.445151        -0.875282         2.644420
 H         2.186312        -2.153948         0.335918
 H         1.746174        -1.333281         1.915236
 H        -0.475300        -0.416487         0.927600
 H        -0.696714         0.817248        -0.210117
 H        -0.124292        -0.742839        -0.804854
 H         4.210541         1.110675        -0.938254
 H         3.036111         2.737500         1.294089
