19
Iteration:  1562
 C         4.613277        -0.463831         1.748789
 C         3.303926        -0.283566         0.888125
 C         2.148358        -1.286711         0.666586
 C         1.442238        -0.029509        -0.024684
 C        -0.024640        -0.027620        -0.025170
 O         2.186460         0.178029        -1.234145
 C         3.231588         0.642478        -0.415591
 C         2.496778         0.989696         0.775412
 O         2.229416         2.107908         1.564390
 H         5.490375        -0.828171         1.133367
 H         5.136416         0.413889         2.241531
 H         4.422711        -1.211144         2.478941
 H         2.419050        -2.152987         0.129078
 H         1.598289        -1.586503         1.625810
 H        -0.279604        -0.189418         1.081543
 H        -0.520099         0.887771        -0.377029
 H        -0.630247        -0.849179        -0.479005
 H         4.120158         1.000963        -0.940175
 H         1.909670         2.715896         0.948790
