19
Iteration:  2830charge 0 multiplicity 1
 C         4.591424        -0.332121         1.670448
 C         3.339197        -0.161999         0.841513
 C         2.114551        -1.088414         0.901554
 C         1.357355        -0.062757         0.033905
 C        -0.079678        -0.071334        -0.175862
 O         2.206539         0.026479        -1.319217
 C         3.245095         0.585595        -0.545047
 C         2.495369         1.016293         0.704277
 O         2.353850         1.970133         1.774947
 H         5.033175        -1.413200         1.502925
 H         5.544079         0.353734         1.471279
 H         4.232854        -0.098025         2.681757
 H         2.082673        -2.163391         0.541409
 H         1.753343        -1.206578         1.956514
 H        -0.521481        -0.575033         0.782634
 H        -0.425208         1.004700        -0.292912
 H        -0.449234        -0.671234        -1.069384
 H         4.180979         0.945490        -1.066422
 H         1.707720         2.514202         1.520014
