19
Iteration:   992
 C         4.707900        -0.363715         1.564541
 C         3.282143        -0.277010         0.968231
 C         2.133299        -1.205354         0.741499
 C         1.348882        -0.093158         0.164293
 C        -0.068381         0.096478        -0.297608
 O         2.241569         0.050025        -1.207281
 C         3.160705         0.597748        -0.386312
 C         2.469352         0.956225         0.817073
 O         2.297704         2.024795         1.666775
 H         5.358265        -1.143283         1.203836
 H         5.231923         0.649137         1.303837
 H         4.711803        -0.483393         2.626918
 H         2.229576        -2.046288         0.050190
 H         1.899066        -1.740738         1.762295
 H        -0.620537         0.166350         0.643674
 H        -0.210077         1.057253        -0.820443
 H        -0.609683        -0.669420        -0.933319
 H         4.040382         0.955263        -0.941920
 H         1.793883         2.778329         1.393659
