19
Iteration:  3932charge 0 multiplicity 1
 C         4.645953        -0.342971         1.645984
 C         3.271630        -0.233957         0.952187
 C         2.198990        -1.268053         0.768061
 C         1.416386        -0.127727         0.022298
 C        -0.115156         0.003254        -0.046341
 O         2.213864         0.136322        -1.276019
 C         3.248935         0.646045        -0.359540
 C         2.371625         0.913247         0.805084
 O         2.321959         2.059844         1.526702
 H         5.162336        -1.270626         1.420889
 H         5.299462         0.585437         1.417981
 H         4.547650        -0.290133         2.758270
 H         2.473864        -2.130632         0.074967
 H         1.708163        -1.506821         1.744552
 H        -0.552223        -0.027679         0.930347
 H        -0.341137         0.899366        -0.634170
 H        -0.550743        -0.831959        -0.708652
 H         4.074388         1.023770        -0.869494
 H         2.004404         2.592654         0.894517
