19
Iteration:  4772
 C         4.632243        -0.384943         1.654582
 C         3.421153        -0.325701         0.856604
 C         2.230686        -1.257312         0.710396
 C         1.413471        -0.116680         0.044741
 C        -0.090570        -0.055249        -0.066221
 O         2.152003         0.191443        -1.215733
 C         3.207228         0.613127        -0.465161
 C         2.475253         0.955886         0.830617
 O         2.219630         2.136986         1.613030
 H         5.347569        -1.199551         1.306141
 H         5.070949         0.585575         1.858640
 H         4.325823        -0.552763         2.765534
 H         2.480162        -2.193557         0.151633
 H         1.882876        -1.512785         1.687632
 H        -0.540222         0.447676         0.767696
 H        -0.336687         0.678027        -0.923919
 H        -0.509478        -1.003553        -0.454983
 H         4.126699         1.068123        -0.945813
 H         1.592593         2.541752         1.136828
