19
Iteration:  2496charge 0 multiplicity 1
 C         4.664514        -0.389322         1.589502
 C         3.353644        -0.169799         0.936317
 C         2.214684        -1.257787         0.803922
 C         1.397370        -0.079414         0.089964
 C        -0.033630         0.057414        -0.167166
 O         2.155012         0.010390        -1.205002
 C         3.225486         0.610667        -0.417267
 C         2.396970         0.957453         0.814333
 O         2.163015         2.092348         1.555635
 H         5.282091        -1.103465         0.985248
 H         5.184189         0.513727         1.809594
 H         4.678950        -0.879201         2.628111
 H         2.312778        -2.228115         0.263531
 H         1.851209        -1.524339         1.799725
 H        -0.701784         0.207075         0.753783
 H        -0.052748         0.987754        -0.804631
 H        -0.409612        -0.800098        -0.803252
 H         4.133405         0.857074        -0.939408
 H         2.851907         2.835182         1.395876
