19
Iteration:  1119
 C         4.635499        -0.417445         1.664383
 C         3.359170        -0.304824         0.846598
 C         2.205954        -1.300032         0.701927
 C         1.419858         0.018847         0.069265
 C        -0.032684         0.082109        -0.119506
 O         2.085800         0.120990        -1.225374
 C         3.334479         0.571122        -0.366383
 C         2.432630         0.947327         0.798600
 O         2.181334         2.045768         1.601450
 H         5.494729        -0.773989         1.098402
 H         5.031475         0.458332         1.939037
 H         4.510699        -0.964271         2.628585
 H         2.257601        -2.279727         0.117047
 H         1.833951        -1.270947         1.696525
 H        -0.675573         0.092792         0.831396
 H        -0.323258         0.949680        -0.708250
 H        -0.382366        -0.782988        -0.708071
 H         4.151797         1.205817        -0.734489
 H         2.420160         2.788880         1.176605
