19
Iteration:  2529charge 0 multiplicity 1
 C         4.720815        -0.420926         1.556172
 C         3.293452        -0.233119         0.949347
 C         2.172970        -1.220377         0.795667
 C         1.449348         0.007541        -0.001425
 C        -0.071578         0.070979        -0.088087
 O         2.247351         0.006501        -1.228164
 C         3.275970         0.568869        -0.307576
 C         2.365211         0.927250         0.828291
 O         2.144595         2.084269         1.528501
 H         5.300771        -0.852330         0.718599
 H         5.069287         0.570956         1.731245
 H         4.637235        -0.933477         2.583217
 H         2.328642        -2.160911         0.201326
 H         1.768641        -1.327602         1.820445
 H        -0.594316         0.284621         0.902877
 H        -0.356371         0.950913        -0.714891
 H        -0.473953        -0.909384        -0.442700
 H         4.153672         1.037753        -0.797705
 H         2.276557         2.740545         0.898101
