19
Iteration:  3442
 C         4.610857        -0.381681         1.720800
 C         3.283981        -0.212288         0.931046
 C         2.198773        -1.225313         0.697382
 C         1.410549        -0.119312         0.034076
 C        -0.065236        -0.021212        -0.000501
 O         2.203462         0.091746        -1.277825
 C         3.251110         0.638410        -0.409639
 C         2.397501         0.952028         0.770013
 O         2.274889         2.069528         1.523362
 H         5.155271        -1.280179         1.337976
 H         5.282722         0.499864         1.662078
 H         4.323937        -0.520316         2.835509
 H         2.370821        -2.108141         0.139866
 H         1.753316        -1.469265         1.670857
 H        -0.531592        -0.426489         0.878790
 H        -0.399356         0.967570        -0.337085
 H        -0.409400        -0.689819        -0.756386
 H         4.118652         1.231324        -0.858011
 H         2.488126         2.906566         1.068235
