19
Iteration:  3690charge 0 multiplicity 1
 C         4.694828        -0.394514         1.615346
 C         3.349222        -0.252645         0.992156
 C         2.171527        -1.220582         0.739951
 C         1.356799        -0.189277         0.083192
 C        -0.092455        -0.039728        -0.195415
 O         2.130860         0.035082        -1.178736
 C         3.198171         0.608480        -0.407829
 C         2.468211         0.955782         0.829201
 O         2.272984         2.202358         1.588649
 H         5.274253        -1.003005         0.965874
 H         4.998679         0.758361         1.547443
 H         4.814756        -0.592640         2.668006
 H         2.338305        -2.020937         0.013549
 H         1.853929        -1.641918         1.643230
 H        -0.697716         0.005742         0.690538
 H        -0.201058         1.047063        -0.386077
 H        -0.500743        -0.621003        -1.155863
 H         4.064023         0.868690        -0.950438
 H         2.690484         3.045471         1.027996
