19
Iteration:   341
 C         4.661202        -0.595958         1.659878
 C         3.383065        -0.237947         0.939007
 C         2.199610        -1.219343         0.743442
 C         1.477550        -0.052375         0.055970
 C        -0.004083         0.157847        -0.000364
 O         2.217913        -0.000798        -1.242241
 C         3.320840         0.630360        -0.386110
 C         2.389193         1.000940         0.766191
 O         1.946990         2.165689         1.413352
 H         5.147319        -1.414990         1.032946
 H         5.328357         0.235043         1.643912
 H         4.637080        -0.953697         2.719858
 H         2.420783        -2.199855         0.196956
 H         1.790249        -1.421127         1.720212
 H        -0.535969         0.193896         0.961790
 H        -0.266783         1.048361        -0.545190
 H        -0.359843        -0.728293        -0.536398
 H         4.197158         1.184856        -0.667717
 H         2.720063         2.479240         1.881740
