19
Iteration:  3255charge 0 multiplicity 1
 C         4.566133        -0.408351         1.673001
 C         3.299192        -0.203862         0.994057
 C         2.202658        -1.300249         0.674649
 C         1.423634        -0.146954        -0.029879
 C        -0.118368        -0.051549        -0.042817
 O         2.184368         0.129968        -1.195111
 C         3.268986         0.584304        -0.432504
 C         2.452012         0.998659         0.803739
 O         2.365048         2.193587         1.529733
 H         5.248169        -1.134090         1.391416
 H         5.115986         0.495853         1.606009
 H         4.365899        -0.469303         2.787534
 H         2.492814        -2.084908         0.055350
 H         1.873055        -1.780830         1.580760
 H        -0.606792        -0.560562         0.821249
 H        -0.466804         1.010998        -0.180658
 H        -0.647289        -0.575299        -0.939759
 H         4.124307         0.874590        -0.930858
 H         1.445154         2.649041         1.263228
