19
Iteration:  3818
 C         4.666031        -0.288440         1.747111
 C         3.399747        -0.244439         0.978769
 C         2.198999        -1.261488         0.642461
 C         1.365491        -0.085177         0.062703
 C        -0.057085         0.003026        -0.078185
 O         2.036864         0.143056        -1.220860
 C         3.291038         0.568658        -0.341042
 C         2.391029         0.882207         0.751642
 O         2.320574         2.044205         1.497201
 H         5.249321        -1.104965         1.308709
 H         5.295892         0.623556         1.631841
 H         4.536848        -0.537739         2.800088
 H         2.417626        -2.068757        -0.152944
 H         1.693512        -1.665001         1.572790
 H        -0.654707         0.022135         0.901804
 H        -0.109743         0.953956        -0.647126
 H        -0.617795        -0.722261        -0.627958
 H         4.239436         1.018378        -0.695277
 H         2.022915         2.850025         0.819269
