19
Iteration:  4771charge 0 multiplicity 1
 C         4.636897        -0.379502         1.651534
 C         3.419698        -0.320360         0.853145
 C         2.226986        -1.255206         0.706301
 C         1.411136        -0.119090         0.045704
 C        -0.093837        -0.058759        -0.069789
 O         2.153623         0.186745        -1.219257
 C         3.210629         0.615776        -0.461248
 C         2.472478         0.953231         0.834967
 O         2.225313         2.135456         1.618869
 H         5.377161        -1.186165         1.295173
 H         5.072826         0.563344         1.859994
 H         4.279896        -0.521815         2.742180
 H         2.483914        -2.174661         0.171176
 H         1.856470        -1.531058         1.704254
 H        -0.518159         0.467367         0.788448
 H        -0.320185         0.699247        -0.923163
 H        -0.535670        -1.011261        -0.460280
 H         4.125005         1.016575        -0.911917
 H         1.568366         2.553303         1.105684
