19
Iteration:  3343charge 0 multiplicity 1
 C         4.675624        -0.318424         1.590196
 C         3.258691        -0.193340         0.960033
 C         2.219475        -1.271815         0.712624
 C         1.374511        -0.027556         0.026913
 C        -0.101237         0.057944        -0.139602
 O         2.225235         0.020846        -1.156836
 C         3.264185         0.573044        -0.359320
 C         2.358768         0.943972         0.801817
 O         2.291602         1.999925         1.569813
 H         5.260728        -1.012522         1.048321
 H         5.101193         0.669612         1.630687
 H         4.602106        -0.482438         2.695992
 H         2.352032        -2.092952         0.089252
 H         1.706283        -1.535322         1.630084
 H        -0.544712         0.230626         0.865736
 H        -0.334757         0.848353        -0.917690
 H        -0.476901        -0.925883        -0.474914
 H         4.113195         1.100839        -0.858834
 H         2.209505         2.953912         1.068908
