19
Iteration:  3801charge 0 multiplicity 1
 C         4.621559        -0.362340         1.765979
 C         3.369471        -0.343404         0.897556
 C         2.220861        -1.321578         0.707540
 C         1.440326        -0.125703         0.044364
 C        -0.074288         0.069745        -0.060995
 O         2.153893         0.141232        -1.239409
 C         3.143453         0.652807        -0.503188
 C         2.472659         0.920439         0.838490
 O         2.263615         2.116794         1.548371
 H         5.441150        -1.079820         1.671278
 H         5.157996         0.637216         1.458082
 H         4.308429        -0.475226         2.832440
 H         2.448469        -2.187215         0.121296
 H         1.794532        -1.671846         1.613236
 H        -0.510637         0.054701         0.906287
 H        -0.476679         0.958957        -0.551772
 H        -0.458961        -0.962927        -0.432157
 H         3.935981         1.187635        -1.104206
 H         2.208866         2.790048         0.757263
