19
Iteration:  4338
 C         4.594299        -0.267924         1.687048
 C         3.334281        -0.251999         0.893091
 C         2.176237        -1.223398         0.676466
 C         1.404683        -0.116354        -0.009675
 C        -0.068686        -0.026327        -0.075795
 O         2.178658         0.089739        -1.211082
 C         3.258071         0.568551        -0.439365
 C         2.403306         0.975253         0.763233
 O         2.342291         2.023813         1.635045
 H         5.258222        -1.070588         1.567390
 H         5.181058         0.719555         1.576766
 H         4.284815        -0.405288         2.698464
 H         2.365607        -2.136433         0.119884
 H         1.604218        -1.387869         1.622824
 H        -0.469976        -0.027689         0.981585
 H        -0.293487         1.002056        -0.479287
 H        -0.670336        -0.896398        -0.407258
 H         4.181624         0.948240        -0.967663
 H         1.859949         2.799270         1.054149
