19
Iteration:   675charge 0 multiplicity 1
 C         4.628062        -0.313107         1.606492
 C         3.287064        -0.220572         0.938449
 C         2.185176        -1.211368         0.752940
 C         1.354307        -0.115932         0.051629
 C        -0.141128         0.006979        -0.290079
 O         2.205876         0.076054        -1.198253
 C         3.253840         0.540551        -0.402598
 C         2.421715         0.994610         0.820340
 O         2.350228         2.043569         1.713777
 H         5.015362        -1.329479         1.360780
 H         5.481290         0.476660         1.212911
 H         4.541018        -0.377220         2.713842
 H         2.438539        -2.055068         0.134181
 H         1.740877        -1.505844         1.761275
 H        -0.537502        -0.025640         0.777464
 H        -0.422625         0.953727        -0.764081
 H        -0.681771        -0.803593        -0.820753
 H         4.157392         0.951079        -0.889039
 H         2.359459         2.885549         1.039359
