19
Iteration:  3797
 C         4.568547        -0.378930         1.757681
 C         3.408714        -0.322097         0.865302
 C         2.204722        -1.329318         0.734974
 C         1.403249        -0.133268         0.060692
 C        -0.041583         0.073850        -0.054039
 O         2.177646         0.131803        -1.237033
 C         3.171852         0.695439        -0.511346
 C         2.458875         0.918138         0.786546
 O         2.252845         2.117792         1.569386
 H         5.355846        -1.127095         1.640885
 H         5.164767         0.624678         1.438418
 H         4.279009        -0.477026         2.780111
 H         2.490216        -2.270913         0.117564
 H         1.820846        -1.657843         1.738480
 H        -0.485794        -0.085305         1.006139
 H        -0.512948         0.913853        -0.594928
 H        -0.480473        -0.902020        -0.307350
 H         3.995485         1.162205        -1.112711
 H         2.250458         2.801489         0.788870
