19
Iteration:  2392charge 0 multiplicity 1
 C         4.560606        -0.400260         1.766397
 C         3.410607        -0.254489         0.850886
 C         2.227859        -1.234940         0.780527
 C         1.413351        -0.055147         0.040821
 C        -0.006276         0.019471        -0.118322
 O         2.041331         0.140920        -1.194337
 C         3.249720         0.597458        -0.477851
 C         2.452297         0.904248         0.755093
 O         2.283516         2.060743         1.547372
 H         5.247052        -1.272301         1.472017
 H         5.416264         0.401949         1.648968
 H         4.154438        -0.328698         2.775875
 H         2.332928        -2.225759         0.154050
 H         1.806236        -1.370202         1.852462
 H        -0.463314        -0.136369         0.825503
 H        -0.306830         0.970771        -0.568027
 H        -0.194450        -0.844037        -0.753944
 H         4.108058         1.171601        -0.876913
 H         1.859708         2.750021         1.140750
