19
Iteration:   784
 C         4.627574        -0.375285         1.624438
 C         3.351465        -0.264360         0.874638
 C         2.161841        -1.224976         0.789392
 C         1.445432        -0.092748         0.045366
 C        -0.023310         0.075205        -0.133668
 O         2.166662         0.133885        -1.235079
 C         3.303312         0.551628        -0.369710
 C         2.416758         0.910245         0.816567
 O         2.168052         2.032598         1.608079
 H         5.320869        -1.025026         1.140429
 H         5.199779         0.612732         1.679432
 H         4.391890        -0.764977         2.600831
 H         2.205543        -2.044352         0.095629
 H         1.824485        -1.586238         1.817957
 H        -0.478352         0.027079         0.919108
 H        -0.086272         1.073812        -0.562010
 H        -0.673475        -0.512732        -0.809941
 H         4.039141         1.023600        -0.972950
 H         2.358863         2.831348         0.855829
