19
Iteration:  1548
 C         4.596748        -0.449190         1.669155
 C         3.380643        -0.314521         0.885221
 C         2.170758        -1.172819         0.755241
 C         1.465109         0.008831         0.010941
 C        -0.019440         0.012699        -0.014633
 O         2.177069         0.201981        -1.282673
 C         3.342710         0.517408        -0.454827
 C         2.393749         0.922300         0.788137
 O         2.157538         2.052109         1.604432
 H         5.483776        -0.914584         1.033725
 H         4.666190         0.567441         2.027414
 H         4.515329        -1.095979         2.583543
 H         2.073784        -2.072822         0.125537
 H         1.711460        -1.373483         1.720710
 H        -0.356169        -0.078090         1.022863
 H        -0.486894         0.930086        -0.345970
 H        -0.177540        -0.850678        -0.631687
 H         4.302088         0.859925        -0.935175
 H         1.809658         2.928199         1.069554
