19
Iteration:  4644
 C         4.640353        -0.482626         1.679692
 C         3.358359        -0.209178         0.864122
 C         2.212885        -1.245052         0.693448
 C         1.432666        -0.051352         0.086313
 C        -0.115141        -0.096661        -0.021446
 O         2.229809         0.124542        -1.255414
 C         3.246443         0.700915        -0.403638
 C         2.405860         0.926330         0.807695
 O         2.185309         2.156100         1.538375
 H         5.148417        -1.335527         1.312889
 H         5.371604         0.364886         1.559329
 H         4.351756        -0.720007         2.662531
 H         2.431441        -2.219997         0.223332
 H         1.861056        -1.362038         1.713936
 H        -0.431438        -0.476896         0.910817
 H        -0.498217         0.911915        -0.193267
 H        -0.428914        -0.817224        -0.767059
 H         4.195917         1.112787        -0.894275
 H         2.035804         2.810113         0.960329
