19
Iteration:  2127charge 0 multiplicity 1
 C         4.671143        -0.458922         1.662116
 C         3.386828        -0.209798         0.930045
 C         2.107285        -1.226644         0.792743
 C         1.398095        -0.038320         0.108860
 C        -0.054434        -0.019322        -0.122594
 O         2.147076         0.160129        -1.228881
 C         3.325984         0.608861        -0.466715
 C         2.491912         0.958232         0.775931
 O         2.200868         2.068175         1.538010
 H         5.365220        -1.167975         1.111132
 H         5.177631         0.420824         1.997314
 H         4.615018        -0.996023         2.610315
 H         2.110839        -2.200365         0.194481
 H         1.547215        -1.214731         1.775071
 H        -0.533271         0.000444         0.886478
 H        -0.361644         0.856015        -0.652388
 H        -0.497702        -0.977662        -0.414861
 H         4.147045         0.928331        -1.054936
 H         1.800904         2.595432         0.928027
