19
Iteration:  1781
 C         4.606838        -0.518692         1.725550
 C         3.430878        -0.210449         0.844256
 C         2.243103        -1.224916         0.708585
 C         1.400929        -0.062685         0.032857
 C        -0.047691        -0.085509        -0.087399
 O         2.112962         0.136410        -1.212422
 C         3.221364         0.684252        -0.390054
 C         2.446891         1.010058         0.794394
 O         2.270956         2.109689         1.561203
 H         5.352181        -1.118198         1.182990
 H         5.067250         0.310338         2.377126
 H         4.247945        -1.196952         2.458192
 H         2.028168        -2.048993         0.047360
 H         1.879549        -1.389542         1.774516
 H        -0.543288        -0.060884         0.852350
 H        -0.435249         0.810031        -0.515682
 H        -0.337149        -0.951676        -0.655750
 H         4.082209         1.042892        -1.028959
 H         1.750549         2.827311         0.881070
