19
Iteration:  1552
 C         4.600440        -0.468558         1.686036
 C         3.390347        -0.323126         0.898862
 C         2.164120        -1.212138         0.745026
 C         1.474721         0.004878        -0.004292
 C        -0.018777         0.013815        -0.026330
 O         2.180365         0.206023        -1.271447
 C         3.305873         0.543568        -0.466971
 C         2.400255         0.926043         0.798086
 O         2.170607         2.083216         1.589269
 H         5.398778        -0.805439         1.056634
 H         4.769136         0.590314         2.104154
 H         4.439998        -1.074690         2.538253
 H         2.145123        -2.034030         0.048365
 H         1.671612        -1.403404         1.758925
 H        -0.212064        -0.155402         1.088908
 H        -0.553481         0.925004        -0.353730
 H        -0.294365        -0.934230        -0.596476
 H         4.239898         0.821683        -0.945900
 H         1.835734         2.891613         1.138932
