19
Iteration:  2790
 C         4.602492        -0.321871         1.735133
 C         3.359534        -0.271983         0.889816
 C         2.157196        -1.312330         0.667639
 C         1.442337        -0.090519         0.146023
 C        -0.057878         0.013595        -0.125239
 O         2.142298         0.120517        -1.227050
 C         3.178955         0.589553        -0.412452
 C         2.454812         0.893213         0.812009
 O         2.305275         2.104380         1.536432
 H         5.335352        -1.061986         1.542054
 H         5.449711         0.454200         1.533345
 H         4.430190        -0.367331         2.790172
 H         2.391747        -1.980382        -0.129760
 H         1.819484        -1.538685         1.675220
 H        -0.633883        -0.077369         0.843251
 H        -0.384033         0.984175        -0.616256
 H        -0.577354        -0.742709        -0.716217
 H         4.003130         1.072578        -0.755276
 H         2.211933         2.919410         0.822289
