19
Iteration:  1752charge 0 multiplicity 1
 C         4.564650        -0.477608         1.690288
 C         3.257323        -0.220631         0.974776
 C         2.223036        -1.274351         0.636621
 C         1.449354        -0.040940        -0.001449
 C        -0.103172        -0.050366         0.116952
 O         2.278826         0.155423        -1.309538
 C         3.299837         0.657412        -0.353987
 C         2.415045         1.003521         0.705921
 O         2.219049         2.089059         1.534662
 H         5.218312        -0.929213         0.979907
 H         5.049423         0.428508         2.040258
 H         4.482034        -1.291418         2.533149
 H         2.209026        -2.135722        -0.058277
 H         1.817428        -1.628447         1.543680
 H        -0.360291        -0.225636         1.193239
 H        -0.571686         0.932530        -0.278568
 H        -0.496576        -0.992979        -0.358988
 H         4.205489         1.057301        -0.827397
 H         2.068532         2.975735         0.889674
