19
Iteration:  1715charge 0 multiplicity 1
 C         4.660920        -0.365760         1.730165
 C         3.438368        -0.363546         0.859747
 C         2.208317        -1.347201         0.690754
 C         1.465448        -0.051561         0.055858
 C        -0.062567         0.103581        -0.040310
 O         2.136878         0.149986        -1.264899
 C         3.231690         0.620972        -0.439602
 C         2.412366         0.925364         0.796128
 O         2.146940         2.034125         1.589725
 H         5.288456        -1.193057         1.270175
 H         5.311442         0.610547         1.677200
 H         4.542087        -0.505502         2.768962
 H         2.322931        -2.153568         0.029431
 H         1.826552        -1.558252         1.729071
 H        -0.602607         0.225720         0.894108
 H        -0.346774         1.007386        -0.531400
 H        -0.468631        -0.615121        -0.723183
 H         4.124232         1.224541        -0.676555
 H         2.061041         3.002222         1.023082
