19
Iteration:   991charge 0 multiplicity 1
 C         4.717316        -0.358292         1.565428
 C         3.288584        -0.273809         0.976028
 C         2.122818        -1.207395         0.729487
 C         1.344194        -0.103989         0.171753
 C        -0.071605         0.107873        -0.299819
 O         2.242491         0.054366        -1.210692
 C         3.166005         0.592331        -0.383644
 C         2.463003         0.957920         0.823232
 O         2.294322         2.027632         1.658090
 H         5.385486        -1.178146         1.167316
 H         5.207672         0.663925         1.319819
 H         4.718248        -0.506275         2.665638
 H         2.212042        -2.050402         0.079625
 H         1.922528        -1.715978         1.731493
 H        -0.630815         0.159945         0.657075
 H        -0.213771         1.039712        -0.815500
 H        -0.570870        -0.685734        -0.899157
 H         4.057263         0.944056        -0.963685
 H         1.818569         2.697372         1.410025
