19
Iteration:  2430charge 0 multiplicity 1
 C         4.576960        -0.375613         1.742392
 C         3.280744        -0.193262         0.925491
 C         2.241859        -1.225037         0.654648
 C         1.427536        -0.074468        -0.003351
 C        -0.101536        -0.001692        -0.026239
 O         2.185999         0.058814        -1.231306
 C         3.304255         0.584754        -0.371924
 C         2.346680         0.976635         0.707573
 O         2.370514         2.085477         1.545304
 H         4.800516        -1.426034         1.520080
 H         5.315258         0.343830         1.436459
 H         4.337810        -0.159792         2.834243
 H         2.481178        -2.007301        -0.048260
 H         1.777963        -1.562652         1.550961
 H        -0.381223        -0.526642         0.984386
 H        -0.567456         1.015444         0.047305
 H        -0.650381        -0.727694        -0.690219
 H         4.120198         1.080900        -0.835282
 H         1.809463         2.627518         1.120864
