19
Iteration:  3909charge 0 multiplicity 1
 C         4.677145        -0.372128         1.648947
 C         3.348208        -0.257698         0.861601
 C         2.155865        -1.237052         0.764922
 C         1.428882        -0.038690         0.113571
 C        -0.028415        -0.051803        -0.206256
 O         2.145322         0.034055        -1.168483
 C         3.220201         0.561183        -0.448393
 C         2.412192         1.008105         0.790893
 O         2.289216         2.145683         1.640555
 H         5.170748        -1.246890         1.301114
 H         5.403092         0.556228         1.578435
 H         4.536881        -0.561455         2.703049
 H         2.310647        -2.166621         0.093643
 H         1.594655        -1.325234         1.697324
 H        -0.486343        -0.226364         0.746976
 H        -0.307810         0.929820        -0.613356
 H        -0.445251        -0.848659        -0.931649
 H         3.922184         1.070732        -1.047114
 H         1.641254         2.859501         1.113937
