19
Iteration:  2435
 C         4.569598        -0.387370         1.760306
 C         3.258535        -0.210643         0.933485
 C         2.237407        -1.236712         0.688295
 C         1.454039        -0.026358        -0.023738
 C        -0.075639        -0.019659        -0.026513
 O         2.180026         0.077394        -1.243843
 C         3.276224         0.549484        -0.379381
 C         2.369637         0.988459         0.719170
 O         2.348737         2.061809         1.550557
 H         4.863646        -1.387200         1.373092
 H         5.278012         0.354393         1.283098
 H         4.274922        -0.110768         2.751580
 H         2.591821        -2.017554        -0.039073
 H         1.823111        -1.501914         1.709217
 H        -0.330461        -0.478497         0.879302
 H        -0.476682         0.976721         0.098109
 H        -0.592939        -0.742261        -0.659752
 H         4.046548         1.117105        -0.960436
 H         1.847315         2.934844         1.088230
