19
Iteration:  3869
 C         4.673566        -0.407291         1.634844
 C         3.403075        -0.144116         0.899365
 C         2.116625        -1.162767         0.888691
 C         1.402966        -0.086699        -0.033042
 C        -0.018182        -0.056253        -0.155314
 O         2.177960         0.078220        -1.203575
 C         3.230360         0.560320        -0.492226
 C         2.354768         0.985267         0.728396
 O         2.281746         2.058940         1.661927
 H         5.338258        -1.191631         1.114159
 H         5.267864         0.463601         1.772288
 H         4.401214        -0.918290         2.633144
 H         2.092200        -2.157363         0.554443
 H         1.713734        -1.134851         1.925775
 H        -0.568462        -0.409040         0.728951
 H        -0.376517         0.933505        -0.472189
 H        -0.312999        -0.803366        -0.897826
 H         3.888080         1.160856        -1.051771
 H         2.103731         2.861384         1.203454
