19
Iteration:  4464charge 0 multiplicity 1
 C         4.630041        -0.459975         1.734624
 C         3.385138        -0.253002         0.914490
 C         2.211111        -1.306880         0.650915
 C         1.430052        -0.030479         0.064119
 C        -0.071451        -0.095966        -0.079422
 O         2.138015         0.145709        -1.131675
 C         3.214771         0.697906        -0.420222
 C         2.418352         0.966033         0.789004
 O         2.273773         2.128996         1.498836
 H         5.381623        -1.236767         1.400102
 H         5.171622         0.399361         1.473692
 H         4.455033        -0.260768         2.834978
 H         2.361004        -2.312575         0.153584
 H         1.638726        -1.647208         1.522148
 H        -0.456935        -0.378910         0.904251
 H        -0.554036         0.807393        -0.294991
 H        -0.348340        -0.678719        -0.936894
 H         4.043587         1.189263        -1.039759
 H         1.962008         2.775994         0.762629
