19
Iteration:  3738charge 0 multiplicity 1
 C         4.637108        -0.376680         1.630831
 C         3.362166        -0.257372         0.893355
 C         2.109093        -1.205104         0.789269
 C         1.418484        -0.102455         0.068101
 C        -0.067317        -0.044174        -0.071935
 O         2.194444         0.106684        -1.226970
 C         3.242537         0.613514        -0.478153
 C         2.514716         0.973130         0.722722
 O         2.268985         2.096408         1.615752
 H         5.183280        -1.311548         1.357195
 H         5.206409         0.462597         1.518567
 H         4.368401        -0.365338         2.729189
 H         2.184086        -2.223667         0.363068
 H         1.546061        -1.243748         1.796103
 H        -0.607308         0.059092         0.904682
 H        -0.293349         0.890106        -0.648610
 H        -0.314778        -0.925731        -0.698566
 H         4.143590         0.991123        -1.032812
 H         1.432804         2.469204         1.331208
