19
Iteration:  3585
 C         4.745471        -0.348672         1.654417
 C         3.422813        -0.299591         0.926164
 C         2.228514        -1.340118         0.704075
 C         1.401928        -0.063027         0.018279
 C        -0.097910         0.087850        -0.056758
 O         2.190289         0.081966        -1.250229
 C         3.182224         0.568344        -0.316849
 C         2.310471         0.905218         0.818949
 O         2.206275         2.148088         1.526958
 H         5.303489        -1.290377         1.366991
 H         5.300004         0.406664         1.246012
 H         4.542150        -0.346347         2.759106
 H         2.363007        -2.236443         0.081209
 H         1.741744        -1.656681         1.684610
 H        -0.419244         0.338804         0.923358
 H        -0.107005         0.948428        -0.696908
 H        -0.534309        -0.682324        -0.451377
 H         4.006873         1.148719        -0.761517
 H         1.991214         2.826338         0.934450
