19
Iteration:     3
 C         4.626652        -0.378002         1.689478
 C         3.338842        -0.232154         0.914298
 C         2.174806        -1.202205         0.790476
 C         1.409951        -0.050719         0.076151
 C        -0.065177        -0.001951        -0.093951
 O         2.161641         0.046237        -1.186003
 C         3.226342         0.575799        -0.422524
 C         2.441388         0.971502         0.744692
 O         2.297372         2.154932         1.401922
 H         5.227646        -1.251435         1.256609
 H         5.257875         0.495659         1.673907
 H         4.410177        -0.639294         2.757686
 H         2.247039        -2.192899         0.159765
 H         1.666780        -1.523493         1.722490
 H        -0.571068        -0.091088         0.856009
 H        -0.374454         0.944655        -0.565559
 H        -0.417506        -0.792872        -0.763931
 H         4.087512         1.019970        -0.884333
 H         2.147723         1.893312         2.430255
