19
Iteration:  4025charge 0 multiplicity 1
 C         4.642118        -0.392620         1.610356
 C         3.375332        -0.205203         0.946563
 C         2.126601        -1.206690         0.758154
 C         1.427132        -0.076452         0.010584
 C        -0.043024        -0.009529        -0.094606
 O         2.146273         0.023693        -1.258264
 C         3.259400         0.594680        -0.379559
 C         2.453708         0.915950         0.910840
 O         2.233905         2.140595         1.534599
 H         5.294767        -1.130783         0.971074
 H         5.067170         0.611069         1.715057
 H         4.489173        -0.701025         2.714926
 H         2.309394        -2.092308         0.181773
 H         1.876720        -1.466071         1.782441
 H        -0.410545         0.015657         0.929811
 H        -0.220815         0.926866        -0.660816
 H        -0.348913        -0.777200        -0.767521
 H         4.100370         1.042955        -0.829521
 H         1.721646         2.759183         0.887487
