19
Iteration:   318
 C         4.712050        -0.455401         1.539465
 C         3.404461        -0.284149         0.881839
 C         2.133090        -1.255194         0.787995
 C         1.396052        -0.041447         0.112510
 C        -0.123524         0.136683        -0.183391
 O         2.320578         0.011424        -1.092473
 C         3.242513         0.568410        -0.374299
 C         2.437274         1.013464         0.843400
 O         2.041109         2.141285         1.429128
 H         5.202995        -1.395947         1.118910
 H         5.373579         0.389618         1.334616
 H         4.677131        -0.567191         2.670143
 H         2.290119        -2.164722         0.106271
 H         1.775526        -1.581789         1.736537
 H        -0.664635         0.325184         0.750583
 H        -0.231868         1.089154        -0.702497
 H        -0.599089        -0.698189        -0.716113
 H         4.166698         0.942317        -0.796650
 H         2.650929         2.292183         2.310159
