19
Iteration:  2092charge 0 multiplicity 1
 C         4.577867        -0.452805         1.747534
 C         3.368640        -0.148907         0.832848
 C         2.239826        -1.293164         0.651446
 C         1.422808        -0.131429         0.056388
 C        -0.053663         0.052599        -0.033910
 O         2.173181         0.009692        -1.267958
 C         3.210430         0.603093        -0.492907
 C         2.355872         0.912360         0.897390
 O         2.285494         2.206632         1.578408
 H         5.134012        -1.314673         1.414876
 H         5.247175         0.310676         1.716474
 H         4.144613        -0.542076         2.781685
 H         2.557186        -2.185157        -0.023712
 H         1.998189        -1.669559         1.658013
 H        -0.410525         0.152332         0.981986
 H        -0.192421         1.002963        -0.489295
 H        -0.518319        -0.610474        -0.649107
 H         4.001513         1.234700        -0.813031
 H         2.095365         2.917712         1.039122
