19
Iteration:  2099charge 0 multiplicity 1
 C         4.548154        -0.482175         1.721275
 C         3.395111        -0.190505         0.851990
 C         2.319579        -1.283094         0.674528
 C         1.393359        -0.106508         0.111688
 C        -0.043930         0.073882        -0.071644
 O         2.163314         0.018854        -1.270319
 C         3.189310         0.605618        -0.413637
 C         2.361323         0.948028         0.834684
 O         2.284718         2.177741         1.551569
 H         5.156419        -1.312537         1.394912
 H         5.297513         0.442305         1.791331
 H         4.284397        -0.719955         2.776138
 H         2.448269        -2.088995        -0.023871
 H         1.912518        -1.523427         1.652557
 H        -0.368170         0.091384         0.978659
 H        -0.334326         1.056203        -0.580817
 H        -0.606992        -0.780912        -0.630742
 H         3.982378         1.318599        -0.902799
 H         1.963626         2.846949         1.028212
