19
Iteration:  3890
 C         4.595529        -0.424895         1.601951
 C         3.384165        -0.161497         0.901769
 C         2.213280        -1.147168         0.887697
 C         1.334390        -0.059189         0.099903
 C        -0.144165        -0.032111        -0.175490
 O         2.144610         0.035046        -1.199518
 C         3.298817         0.677641        -0.458935
 C         2.523334         0.998546         0.738076
 O         2.269694         2.001807         1.601840
 H         5.280802        -1.267218         1.164727
 H         5.173652         0.554360         1.608784
 H         4.449458        -0.782356         2.713971
 H         2.366676        -2.001921         0.301411
 H         2.004135        -1.334315         1.972534
 H        -0.883075        -0.469278         0.484623
 H        -0.441767         0.860386        -0.730175
 H        -0.279960        -0.846210        -0.948157
 H         4.278962         0.821493        -0.793104
 H         1.816376         2.921338         1.144523
