19
Iteration:  4305charge 0 multiplicity 1
 C         4.565832        -0.390955         1.793678
 C         3.388110        -0.230087         0.868584
 C         2.216666        -1.134383         0.681565
 C         1.414187        -0.061570         0.081074
 C        -0.022200        -0.107371        -0.036969
 O         2.115283         0.066905        -1.273511
 C         3.191765         0.655173        -0.479508
 C         2.443222         0.958642         0.689356
 O         2.316533         2.034951         1.599765
 H         5.033189        -1.318458         1.729980
 H         5.278588         0.501361         1.932389
 H         4.095368        -0.279367         2.752723
 H         2.398236        -2.046637         0.130694
 H         1.675410        -1.250627         1.654651
 H        -0.433229        -0.314001         0.987772
 H        -0.443328         0.918655        -0.268532
 H        -0.408818        -0.727859        -0.885142
 H         4.029978         1.074562        -1.090362
 H         2.354442         2.795804         1.148961
