19
Iteration:  2712
 C         4.652350        -0.525376         1.618052
 C         3.382098        -0.221871         0.886479
 C         2.192835        -1.088551         0.829973
 C         1.463766        -0.016680         0.066099
 C        -0.054130         0.007881        -0.076687
 O         2.201680         0.082686        -1.203962
 C         3.317221         0.550201        -0.454778
 C         2.392320         1.005467         0.726568
 O         2.119934         2.055131         1.555308
 H         5.380167        -1.016940         0.985462
 H         5.216257         0.268254         2.282988
 H         4.482988        -1.124792         2.481759
 H         2.347397        -2.151090         0.503711
 H         1.825524        -1.137751         1.886408
 H        -0.735805         0.099208         0.821921
 H        -0.283403         0.906472        -0.696803
 H        -0.418996        -0.914057        -0.572281
 H         4.150015         1.008158        -1.046579
 H         1.590946         2.587482         1.072969
