19
Iteration:  3428
 C         4.548153        -0.462256         1.699834
 C         3.415768        -0.203115         0.866662
 C         2.232093        -1.199344         0.795286
 C         1.466009        -0.051666        -0.039138
 C         0.050353        -0.011527        -0.071500
 O         2.124752         0.013505        -1.236761
 C         3.228787         0.641970        -0.435805
 C         2.346707         1.012504         0.709727
 O         2.196467         2.082254         1.632133
 H         5.126960        -1.333066         1.474646
 H         5.377637         0.411104         1.574099
 H         4.253680        -0.666912         2.800794
 H         2.415231        -2.182181         0.180150
 H         1.764124        -1.439678         1.801685
 H        -0.225581        -0.123027         0.944310
 H        -0.311462         0.958905        -0.166203
 H        -0.490762        -0.652098        -0.742657
 H         4.087972         1.116640        -0.977086
 H         2.261731         2.918236         0.972737
