19
Iteration:  4820charge 0 multiplicity 1
 C         4.593539        -0.541658         1.650665
 C         3.388350        -0.193257         0.858962
 C         2.249834        -1.280668         0.719239
 C         1.417845        -0.077322         0.007197
 C        -0.105106        -0.108558        -0.015964
 O         2.222028         0.096597        -1.267944
 C         3.320023         0.679321        -0.432455
 C         2.373019         1.037340         0.765666
 O         2.149798         2.184656         1.637912
 H         5.087450        -1.334281         1.108066
 H         5.159974         0.466131         1.671416
 H         4.508224        -0.840436         2.699338
 H         2.528516        -2.283030         0.296981
 H         1.849783        -1.401728         1.758353
 H        -0.284822        -0.033592         1.077584
 H        -0.602842         0.724547        -0.365302
 H        -0.464374        -0.980863        -0.482092
 H         4.086262         1.271962        -0.876457
 H         2.188226         2.993470         1.041264
