19
Iteration:  3981charge 0 multiplicity 1
 C         4.542704        -0.381325         1.760944
 C         3.368680        -0.209960         0.851639
 C         2.248297        -1.186640         0.730774
 C         1.499316        -0.084198         0.074944
 C        -0.009761         0.010523        -0.004192
 O         2.132596         0.081902        -1.275054
 C         3.220708         0.580267        -0.528008
 C         2.492004         0.946522         0.757316
 O         2.117130         2.056425         1.556609
 H         5.043798        -1.340681         1.280952
 H         5.223938         0.432653         1.938936
 H         4.188923        -0.732116         2.818614
 H         2.301730        -2.038155         0.110739
 H         1.827940        -1.274843         1.729593
 H        -0.142230         0.064859         1.108996
 H        -0.377073         0.850550        -0.608692
 H        -0.404368        -0.931616        -0.326154
 H         4.130434         1.017608        -0.971387
 H         2.718528         2.896169         1.177232
