19
Iteration:  3497charge 0 multiplicity 1
 C         4.576717        -0.344975         1.698851
 C         3.290685        -0.247461         0.955525
 C         2.191886        -1.275561         0.807344
 C         1.383688        -0.099008         0.094859
 C        -0.043098        -0.074408        -0.159817
 O         2.147057         0.097378        -1.248375
 C         3.192113         0.704135        -0.497414
 C         2.450556         0.970760         0.800336
 O         2.395850         2.068430         1.560138
 H         5.363657        -1.034679         1.291907
 H         5.081948         0.602434         1.700379
 H         4.393395        -0.784387         2.742572
 H         2.263797        -2.084723         0.120736
 H         1.854987        -1.620218         1.795756
 H        -0.654391        -0.183124         0.707964
 H        -0.398592         0.897433        -0.518872
 H        -0.342172        -0.765345        -0.866401
 H         4.074141         1.112980        -0.934165
 H         2.027106         2.864832         1.068966
