19
Iteration:  2745
 C         4.611939        -0.491367         1.672918
 C         3.321528        -0.272029         0.960214
 C         2.192791        -1.223498         0.750272
 C         1.448113        -0.043850         0.060327
 C        -0.032713         0.014579         0.044354
 O         2.241586         0.106392        -1.272486
 C         3.253412         0.639862        -0.407292
 C         2.446530         0.918586         0.766233
 O         2.102494         2.113082         1.476727
 H         5.432371        -0.864752         1.051940
 H         5.152248         0.537613         1.900599
 H         4.512351        -1.220724         2.443010
 H         2.390308        -2.024786         0.046789
 H         1.632326        -1.222756         1.699979
 H        -0.539415         0.199637         1.051085
 H        -0.368379         0.728600        -0.764477
 H        -0.421292        -0.931371        -0.402000
 H         4.080880         1.107707        -0.924453
 H         2.576591         2.930890         0.957386
