19
Iteration:  1532charge 0 multiplicity 1
 C         4.639854        -0.386415         1.630439
 C         3.370645        -0.266585         0.868307
 C         2.090012        -1.193111         0.763016
 C         1.438395        -0.007065         0.070244
 C        -0.082135         0.071998        -0.072415
 O         2.216192         0.119106        -1.221395
 C         3.323736         0.589639        -0.436102
 C         2.520105         0.968999         0.716936
 O         2.145556         1.910212         1.628872
 H         5.320348        -0.884375         1.034511
 H         5.171070         0.538954         1.956097
 H         4.373866        -0.922522         2.548299
 H         2.274863        -2.207391         0.272151
 H         1.680163        -1.177387         1.793393
 H        -0.598055        -0.069003         0.920671
 H        -0.323534         1.053404        -0.548360
 H        -0.461759        -0.746814        -0.747394
 H         4.210844         1.016668        -0.852738
 H         1.816555         2.854562         1.110660
