19
Iteration:   538
 C         4.610143        -0.419235         1.699183
 C         3.301429        -0.301633         0.951553
 C         2.194537        -1.306757         0.678242
 C         1.433509        -0.005673         0.020542
 C         0.047344         0.039719        -0.043925
 O         2.119240         0.185959        -1.173076
 C         3.275495         0.590414        -0.325523
 C         2.405871         0.879117         0.818790
 O         2.243916         2.114203         1.432034
 H         5.155311        -1.391162         1.316191
 H         5.265546         0.441333         1.654928
 H         4.384941        -0.647668         2.805636
 H         2.265242        -1.875451        -0.254178
 H         1.794571        -1.816128         1.480599
 H        -0.343077         0.043644         0.988742
 H        -0.285903         0.932389        -0.609373
 H        -0.278438        -0.836860        -0.634700
 H         4.109568         1.242526        -0.656092
 H         1.758945         2.657072         0.673481
