19
Iteration:  2929charge 0 multiplicity 1
 C         4.577986        -0.498671         1.732472
 C         3.352205        -0.242375         0.906550
 C         2.260384        -1.226784         0.717120
 C         1.412240        -0.075202         0.015630
 C        -0.085150        -0.005850         0.060614
 O         2.256366         0.079648        -1.256859
 C         3.272502         0.642985        -0.418667
 C         2.431216         0.990980         0.735019
 O         2.145208         2.143694         1.500771
 H         5.368004        -0.958533         1.051014
 H         5.106250         0.375097         1.986210
 H         4.237178        -1.037412         2.589998
 H         2.324722        -2.018767        -0.076008
 H         1.824150        -1.640244         1.685392
 H        -0.362739         0.068603         1.143720
 H        -0.438062         0.797909        -0.604499
 H        -0.596427        -0.925130        -0.205204
 H         4.071455         1.060055        -0.920329
 H         2.241742         2.947078         0.951066
