19
Iteration:   764charge 0 multiplicity 1
 C         4.581416        -0.439171         1.712366
 C         3.331321        -0.299556         0.932819
 C         2.185408        -1.327640         0.582536
 C         1.437439        -0.055629         0.068457
 C        -0.042924         0.143780         0.042213
 O         2.220361         0.056671        -1.216472
 C         3.251227         0.679773        -0.361801
 C         2.435890         0.948059         0.746604
 O         2.220080         2.116141         1.511916
 H         5.300777        -0.996872         1.115224
 H         5.079808         0.672169         1.743198
 H         4.385123        -0.930263         2.672227
 H         2.597114        -2.116899         0.018732
 H         1.651381        -1.804072         1.449222
 H        -0.414767        -0.181642         1.046861
 H        -0.409866         0.961609        -0.541248
 H        -0.357933        -0.707468        -0.621411
 H         4.197478         0.993829        -0.759312
 H         1.626001         2.811371         0.964265
