19
Iteration:  1824
 C         4.709544        -0.316870         1.619014
 C         3.311631        -0.216632         0.902758
 C         2.080680        -1.241097         0.710920
 C         1.387256        -0.101874         0.026038
 C        -0.105863        -0.026843        -0.272037
 O         2.152597         0.074751        -1.201833
 C         3.245368         0.609375        -0.418843
 C         2.367167         0.965722         0.826262
 O         2.385523         2.055315         1.737133
 H         5.249829        -1.214728         1.222387
 H         5.303613         0.669380         1.446338
 H         4.680604        -0.437835         2.671996
 H         2.376160        -2.279534         0.358911
 H         1.687479        -1.257467         1.830747
 H        -0.647376        -0.220499         0.671606
 H        -0.442338         0.955983        -0.572406
 H        -0.335163        -0.908776        -0.869057
 H         4.251030         0.943387        -0.817910
 H         2.173272         2.866237         1.259160
