19
Iteration:  1112charge 0 multiplicity 1
 C         4.670968        -0.447627         1.672532
 C         3.353163        -0.257302         0.891139
 C         2.175138        -1.237277         0.653989
 C         1.407502        -0.067835         0.053324
 C        -0.067734         0.073163        -0.075606
 O         2.107694         0.116956        -1.222754
 C         3.280545         0.640561        -0.349572
 C         2.436883         0.905114         0.778638
 O         2.235505         2.030576         1.568376
 H         5.638745        -0.999469         1.320067
 H         4.987063         0.657792         2.052495
 H         4.197205        -0.824845         2.613737
 H         2.271778        -2.068498        -0.002322
 H         1.902510        -1.558428         1.711349
 H        -0.635059         0.093534         0.808040
 H        -0.213051         0.973119        -0.687540
 H        -0.398202        -0.760242        -0.709469
 H         4.059280         1.287438        -0.671571
 H         2.474582         2.789038         1.033179
