19
Iteration:  1983
 C         4.639105        -0.404184         1.628527
 C         3.401695        -0.238191         0.885231
 C         2.190827        -1.263841         0.847321
 C         1.419291        -0.125422         0.069590
 C        -0.076365         0.019828        -0.252963
 O         2.104111         0.070539        -1.181831
 C         3.235568         0.611597        -0.458742
 C         2.449380         0.964467         0.836489
 O         2.287259         2.131321         1.630250
 H         5.314134        -1.104681         1.033768
 H         5.102686         0.526667         1.764174
 H         4.527783        -0.925717         2.671865
 H         2.335124        -2.205259         0.219238
 H         1.686616        -1.531744         1.762821
 H        -0.715933         0.038165         0.688052
 H        -0.314000         0.924717        -0.873903
 H        -0.506370        -0.903329        -0.740662
 H         3.905445         1.380904        -0.979417
 H         2.148539         3.058126         1.112395
