19
Iteration:  4411
 C         4.660191        -0.430029         1.628011
 C         3.377158        -0.144739         0.942338
 C         2.119599        -1.169972         0.805539
 C         1.434722        -0.102512         0.037350
 C        -0.038461        -0.028591        -0.092394
 O         2.217648         0.009459        -1.234942
 C         3.189693         0.683735        -0.439963
 C         2.487651         1.028463         0.768728
 O         2.155953         2.036678         1.617963
 H         5.257033        -1.144306         0.957903
 H         5.379691         0.448420         1.605782
 H         4.578388        -1.068865         2.548057
 H         2.385631        -2.124884         0.190193
 H         1.605937        -1.546827         1.723696
 H        -0.634704        -0.045189         0.876444
 H        -0.179591         0.886847        -0.680852
 H        -0.508699        -0.880776        -0.644369
 H         4.114569         1.013470        -1.015587
 H         2.112763         2.949433         1.013187
