19
Iteration:  3922
 C         4.645245        -0.360494         1.652747
 C         3.354254        -0.266325         0.953128
 C         2.186390        -1.219197         0.740923
 C         1.436501        -0.111126        -0.032073
 C        -0.014165        -0.001123        -0.116078
 O         2.099400         0.077119        -1.229570
 C         3.238859         0.592705        -0.327350
 C         2.343664         0.943383         0.769768
 O         2.316403         2.110803         1.554394
 H         5.255598        -1.233410         1.294760
 H         5.256805         0.538097         1.295057
 H         4.548356        -0.317004         2.799855
 H         2.316703        -2.179362         0.211699
 H         1.752160        -1.551888         1.718911
 H        -0.434436        -0.037674         0.875864
 H        -0.352705         0.962157        -0.518769
 H        -0.375856        -0.896050        -0.727686
 H         4.050716         1.207646        -0.578613
 H         1.898116         2.824888         1.228950
