19
Iteration:  1789charge 0 multiplicity 1
 C         4.592379        -0.512525         1.722093
 C         3.404765        -0.215634         0.860694
 C         2.220685        -1.246688         0.719108
 C         1.397311        -0.075819         0.161312
 C        -0.056688        -0.057424        -0.147223
 O         2.093724         0.170244        -1.180414
 C         3.255752         0.712207        -0.455551
 C         2.444518         0.987685         0.755872
 O         2.291852         2.071099         1.555828
 H         5.417352        -1.046828         1.108880
 H         5.110354         0.371589         2.155074
 H         4.239438        -1.108878         2.551928
 H         2.269004        -2.329749         0.241742
 H         1.987864        -1.354966         1.883454
 H        -0.680969        -0.151860         0.824504
 H        -0.391491         0.751105        -0.813617
 H        -0.254890        -0.908273        -0.850347
 H         4.099347         1.171875        -1.006897
 H         1.789285         2.908834         0.997346
