19
Iteration:  2898charge 0 multiplicity 1
 C         4.717263        -0.351596         1.683567
 C         3.359227        -0.345013         0.956703
 C         2.186112        -1.271745         0.723365
 C         1.444617        -0.128796         0.022586
 C        -0.064988         0.020078        -0.146318
 O         2.128195         0.156676        -1.147060
 C         3.186367         0.605291        -0.351650
 C         2.375911         0.911855         0.863101
 O         2.301298         2.130942         1.450315
 H         5.322102        -1.142527         1.193215
 H         5.053517         0.765220         1.668284
 H         4.498006        -0.619686         2.691162
 H         2.247808        -2.033258        -0.072523
 H         1.857974        -1.865509         1.599720
 H        -0.469809         0.009073         0.965082
 H        -0.300047         1.087303        -0.610324
 H        -0.540089        -0.788697        -0.789551
 H         3.978161         1.124234        -0.786962
 H         1.886571         2.840183         0.770103
