19
Iteration:  3616charge 0 multiplicity 1
 C         4.577956        -0.426689         1.705860
 C         3.356003        -0.204531         0.874351
 C         2.279137        -1.221713         0.726892
 C         1.470641        -0.049543         0.127560
 C        -0.028929         0.005115         0.027558
 O         2.132782         0.076676        -1.224645
 C         3.230131         0.596425        -0.470310
 C         2.422931         0.987108         0.724070
 O         2.153395         2.048074         1.498678
 H         5.058758        -1.327775         1.336841
 H         5.278490         0.411455         1.660702
 H         4.232801        -0.665622         2.764328
 H         2.495792        -2.058135        -0.011119
 H         1.885144        -1.642330         1.729984
 H        -0.582927         0.112283         0.930706
 H        -0.219575         0.998308        -0.439643
 H        -0.354707        -0.764052        -0.755941
 H         4.060620         1.075926        -0.939294
 H         2.723031         2.889002         1.237019
