19
Iteration:  4077charge 0 multiplicity 1
 C         4.682143        -0.372458         1.620701
 C         3.427213        -0.264865         0.898508
 C         2.168349        -1.169852         0.840374
 C         1.389893        -0.096532         0.020573
 C        -0.087885        -0.017073        -0.222188
 O         2.186874         0.009434        -1.214134
 C         3.114876         0.612772        -0.437798
 C         2.413478         0.990500         0.812005
 O         2.288468         2.094552         1.634786
 H         5.257285        -1.278925         1.303291
 H         5.161781         0.493461         1.432035
 H         4.517921        -0.455627         2.737255
 H         2.226342        -2.177483         0.431345
 H         1.623713        -1.018513         1.849141
 H        -0.462611        -0.404559         0.743087
 H        -0.365370         0.983452        -0.559338
 H        -0.222141        -0.781382        -0.962732
 H         3.929157         1.143274        -0.866158
 H         2.289523         2.898799         1.268554
