19
Iteration:   536
 C         4.598331        -0.421179         1.684242
 C         3.307227        -0.300459         0.957700
 C         2.194066        -1.307407         0.684985
 C         1.432753        -0.008602         0.029884
 C         0.046158         0.044446        -0.057273
 O         2.138579         0.185287        -1.159970
 C         3.278008         0.600374        -0.339103
 C         2.386646         0.870921         0.810756
 O         2.251510         2.118918         1.449711
 H         5.144322        -1.319386         1.357589
 H         5.274663         0.386337         1.596138
 H         4.368877        -0.651019         2.738469
 H         2.310426        -1.920782        -0.239556
 H         1.745963        -1.830870         1.548338
 H        -0.337917         0.016849         0.998515
 H        -0.297361         0.891074        -0.634986
 H        -0.332128        -0.820332        -0.635132
 H         4.091391         1.242515        -0.754161
 H         1.730504         2.665596         0.631133
