19
Iteration:  3149
 C         4.728461        -0.383756         1.676935
 C         3.386477        -0.309383         0.890989
 C         2.186559        -1.257282         0.763645
 C         1.439564        -0.059461         0.029811
 C        -0.096342         0.037649        -0.064695
 O         2.207076         0.158784        -1.237102
 C         3.245326         0.543521        -0.380863
 C         2.384538         0.884557         0.764172
 O         2.125318         2.122423         1.534866
 H         5.327130        -1.248670         1.162605
 H         5.162282         0.639057         1.720038
 H         4.519357        -0.729919         2.704353
 H         2.506019        -2.181725         0.178629
 H         1.662754        -1.436717         1.729881
 H        -0.470152         0.422596         0.870509
 H        -0.486529         0.819947        -0.750487
 H        -0.543871        -0.849934        -0.296863
 H         4.004328         1.107957        -0.821388
 H         2.559142         2.747572         1.068414
