19
Iteration:  4550
 C         4.673129        -0.283566         1.626763
 C         3.335022        -0.235790         0.872930
 C         2.196077        -1.279064         0.820232
 C         1.432952        -0.089527         0.015485
 C        -0.085236         0.003654        -0.190486
 O         2.102287         0.100296        -1.233783
 C         3.284249         0.554303        -0.453348
 C         2.493018         1.002599         0.763513
 O         2.261221         2.021268         1.708573
 H         5.550996        -0.915888         1.251488
 H         5.027503         0.732885         1.558208
 H         4.483759        -0.575942         2.694642
 H         2.211615        -2.205395         0.252856
 H         1.608433        -1.459007         1.778036
 H        -0.402773         0.214580         0.865702
 H        -0.320362         0.859261        -0.797147
 H        -0.690811        -0.885893        -0.460615
 H         4.212522         0.945058        -1.007590
 H         1.414741         2.531578         1.300112
