19
Iteration:  1318
 C         4.624018        -0.385922         1.571811
 C         3.360761        -0.220298         0.897224
 C         2.154201        -1.227806         0.834013
 C         1.436923        -0.041181         0.003751
 C        -0.006129         0.116070        -0.200772
 O         2.182561         0.074441        -1.198952
 C         3.252824         0.584945        -0.398493
 C         2.411863         0.988579         0.745857
 O         2.203014         1.922392         1.711861
 H         5.233791        -1.154672         1.001603
 H         5.153464         0.493267         1.637186
 H         4.587979        -0.770874         2.588162
 H         2.391409        -2.074938         0.126761
 H         1.805976        -1.614634         1.822639
 H        -0.578094         0.142767         0.743900
 H        -0.216101         1.140227        -0.665897
 H        -0.505961        -0.701770        -0.797905
 H         4.075977         1.152773        -0.899934
 H         1.925934         2.919554         1.294330
