19
Iteration:  2223charge 0 multiplicity 1
 C         4.553804        -0.327023         1.722849
 C         3.355230        -0.340246         0.921658
 C         2.187552        -1.225596         0.728940
 C         1.439600        -0.038726         0.073883
 C        -0.135074        -0.011269        -0.117315
 O         2.152042         0.159691        -1.171661
 C         3.247970         0.664913        -0.490679
 C         2.487348         0.863731         0.747763
 O         2.355346         2.024383         1.538047
 H         5.215382        -1.239641         1.715515
 H         5.246123         0.446292         1.477844
 H         4.316079        -0.057807         2.874048
 H         2.073853        -2.083850        -0.010100
 H         1.806977        -1.492755         1.731357
 H        -0.653709        -0.389478         0.808855
 H        -0.557510         0.949171        -0.392680
 H        -0.441526        -0.759124        -0.799657
 H         4.232504         1.075063        -0.794228
 H         1.870768         2.835749         0.972424
