19
Iteration:  4280
 C         4.583277        -0.409879         1.764870
 C         3.365176        -0.237120         0.914612
 C         2.278338        -1.302182         0.803873
 C         1.394102        -0.070775         0.089837
 C        -0.117575        -0.094397        -0.121737
 O         2.100935         0.183678        -1.281714
 C         3.273510         0.635568        -0.478639
 C         2.450585         0.947091         0.713361
 O         2.325691         2.125890         1.566007
 H         5.043697        -1.349864         1.490393
 H         5.294206         0.433951         1.727311
 H         4.338613        -0.392112         2.813654
 H         2.500607        -2.267621         0.264798
 H         1.779454        -1.414473         1.749997
 H        -0.524931        -0.352828         0.911893
 H        -0.566871         0.909138        -0.268594
 H        -0.538089        -0.700409        -0.959501
 H         4.062324         1.069815        -1.000106
 H         1.917757         2.755878         0.975998
