19
Iteration:  4665
 C         4.631490        -0.432989         1.660344
 C         3.391344        -0.177710         0.938650
 C         2.253351        -1.240213         0.735645
 C         1.468917        -0.136908         0.000003
 C        -0.058237        -0.041626        -0.075821
 O         2.140922         0.091939        -1.202802
 C         3.211823         0.621898        -0.415073
 C         2.365596         0.974401         0.752974
 O         2.264817         2.130082         1.585345
 H         5.085565        -1.378981         1.415183
 H         5.285254         0.497629         1.526581
 H         4.354443        -0.628476         2.697702
 H         2.470344        -2.085941        -0.045803
 H         1.661210        -1.530210         1.575259
 H        -0.485340        -0.490184         0.768938
 H        -0.321666         1.030089        -0.147086
 H        -0.462653        -0.573568        -0.921731
 H         3.997177         1.198720        -0.995712
 H         1.614628         2.867798         1.338906
