19
Iteration:  4150
 C         4.519932        -0.355360         1.721775
 C         3.309777        -0.259412         0.932180
 C         2.223384        -1.289421         0.699752
 C         1.406369        -0.080353        -0.010175
 C        -0.050298         0.000805         0.029384
 O         2.197953         0.142872        -1.246215
 C         3.246639         0.637405        -0.409341
 C         2.412022         0.915295         0.740334
 O         2.322027         2.082395         1.485610
 H         5.194945        -1.162007         1.437443
 H         5.067170         0.747416         1.522378
 H         4.311371        -0.516270         2.775001
 H         2.406249        -2.188258         0.048231
 H         1.957497        -1.660730         1.723382
 H        -0.302171         0.107223         1.128492
 H        -0.224268         0.969899        -0.477350
 H        -0.464395        -0.975453        -0.366239
 H         4.184801         1.062896        -0.728196
 H         1.595400         2.445508         1.144088
