19
Iteration:  1536
 C         4.622376        -0.397123         1.640595
 C         3.330786        -0.269899         0.835222
 C         2.104422        -1.165919         0.743741
 C         1.435722         0.012890         0.073211
 C        -0.050836         0.042228        -0.022312
 O         2.198663         0.143772        -1.252156
 C         3.363411         0.535348        -0.405297
 C         2.502653         0.974378         0.727447
 O         2.133168         1.945931         1.624593
 H         5.526405        -0.849513         1.048491
 H         5.107860         0.506719         1.936880
 H         4.418113        -1.001836         2.591608
 H         2.290298        -2.182921         0.341278
 H         1.713473        -1.188711         1.734923
 H        -0.659320        -0.123321         0.823622
 H        -0.266754         0.954113        -0.569788
 H        -0.432474        -0.683726        -0.704510
 H         4.225742         1.036051        -0.844307
 H         1.921485         2.573586         1.063480
