19
Iteration:  2066
 C         4.571079        -0.360134         1.757715
 C         3.328784        -0.243790         0.890797
 C         2.200471        -1.273169         0.701502
 C         1.421050        -0.021042         0.072460
 C        -0.085314         0.019976        -0.045303
 O         2.157334         0.127561        -1.237934
 C         3.254820         0.586477        -0.471296
 C         2.445982         0.942535         0.741436
 O         2.283141         1.987881         1.522448
 H         5.158773        -1.248876         1.629032
 H         5.218846         0.504428         1.320620
 H         4.356081        -0.106763         2.784692
 H         2.373134        -2.187864         0.174476
 H         1.805572        -1.507511         1.705437
 H        -0.359057        -0.200227         0.979263
 H        -0.481439         1.048403        -0.249841
 H        -0.487741        -0.760782        -0.746544
 H         4.246680         1.087210        -0.731014
 H         2.334968         2.969680         1.299349
