19
Iteration:  1770charge 0 multiplicity 1
 C         4.604280        -0.562973         1.730583
 C         3.373177        -0.232787         0.856013
 C         2.192315        -1.141883         0.685086
 C         1.470346        -0.041031         0.001053
 C        -0.092195        -0.086960        -0.004376
 O         2.188722         0.123654        -1.242105
 C         3.237965         0.619123        -0.458155
 C         2.406901         0.954570         0.810070
 O         2.244419         2.168150         1.579963
 H         5.485455        -0.949098         1.186575
 H         4.993964         0.425603         2.173054
 H         4.280681        -1.246901         2.464500
 H         2.612413        -1.949516         0.103974
 H         1.659551        -1.590717         1.565188
 H        -0.311552        -0.214391         1.026290
 H        -0.455762         0.791856        -0.469884
 H        -0.543469        -0.925019        -0.503868
 H         4.083007         1.261870        -0.844218
 H         1.811651         2.896078         0.939258
