19
Iteration:  2469
 C         4.672965        -0.389153         1.721446
 C         3.467801        -0.278320         0.833436
 C         2.113760        -1.219047         0.802787
 C         1.377260        -0.027217         0.080803
 C        -0.096796        -0.035985        -0.119838
 O         2.152598         0.124702        -1.194586
 C         3.244914         0.635245        -0.457781
 C         2.459060         0.931235         0.777936
 O         2.185132         2.032028         1.505727
 H         5.370086        -1.196727         1.530013
 H         5.354666         0.528399         1.609210
 H         4.465805        -0.529887         2.743893
 H         2.012555        -2.268330         0.413105
 H         1.874613        -1.272863         1.895257
 H        -0.588681        -0.170130         0.790479
 H        -0.354500         0.926587        -0.527585
 H        -0.344670        -0.659214        -0.935212
 H         4.102127         1.093271        -1.025943
 H         2.688187         2.897485         1.351132
