19
Iteration:   847
 C         4.609677        -0.390509         1.607267
 C         3.326093        -0.295951         0.883311
 C         2.169546        -1.216461         0.803126
 C         1.377795        -0.018730         0.023421
 C        -0.078813        -0.022233        -0.243958
 O         2.190730         0.116310        -1.203872
 C         3.300540         0.571271        -0.437111
 C         2.371500         0.994504         0.756316
 O         2.312407         2.052920         1.769873
 H         5.105205        -1.393025         1.429926
 H         5.147283         0.382606         1.184821
 H         4.612546        -0.177465         2.697065
 H         2.348061        -2.169908         0.197132
 H         1.802827        -1.539539         1.804749
 H        -0.610681        -0.055958         0.746021
 H        -0.386266         0.949529        -0.595690
 H        -0.340773        -0.856978        -0.867381
 H         4.082551         0.950831        -1.081621
 H         2.131743         2.998887         1.220194
