19
Iteration:  2775
 C         4.638657        -0.373022         1.710344
 C         3.340790        -0.312656         0.941233
 C         2.276626        -1.323023         0.639087
 C         1.377514        -0.132286         0.001480
 C        -0.110754         0.051740        -0.039714
 O         2.171160         0.077676        -1.203854
 C         3.218881         0.632033        -0.354479
 C         2.379234         0.939909         0.835197
 O         2.264795         2.191270         1.506889
 H         5.265241        -1.226147         1.338290
 H         4.968566         0.654265         1.597791
 H         4.428856        -0.603732         2.776186
 H         2.525344        -2.122051        -0.098243
 H         1.783147        -1.795684         1.509013
 H        -0.546187         0.217437         0.990023
 H        -0.252409         0.964223        -0.644589
 H        -0.514712        -0.868369        -0.609384
 H         4.093489         1.160129        -0.931597
 H         2.675979         2.784766         0.921148
