19
Iteration:  1974
 C         4.672229        -0.416644         1.613002
 C         3.351163        -0.280489         0.897490
 C         2.161660        -1.263659         0.783819
 C         1.430446        -0.053461         0.111180
 C        -0.072404        -0.028034        -0.174338
 O         2.160668         0.145814        -1.224928
 C         3.183928         0.598979        -0.396430
 C         2.463102         0.932979         0.811364
 O         2.251169         2.124058         1.594306
 H         5.545636        -0.963064         1.104908
 H         5.136424         0.551466         1.860903
 H         4.411110        -0.879498         2.601862
 H         2.319543        -2.248957         0.419479
 H         1.757062        -1.264926         1.778699
 H        -0.680931         0.132456         0.792475
 H        -0.385400         0.786362        -0.867449
 H        -0.475251        -0.920103        -0.804649
 H         4.076170         1.064888        -0.824000
 H         2.281492         2.808393         0.770774
