19
Iteration:  4596charge 0 multiplicity 1
 C         4.680256        -0.391638         1.640362
 C         3.341986        -0.237796         0.847083
 C         2.232299        -1.259076         0.765680
 C         1.442596        -0.124962         0.017143
 C        -0.096514        -0.004818        -0.074767
 O         2.196817         0.119029        -1.200337
 C         3.226917         0.634475        -0.402196
 C         2.427979         0.937469         0.787730
 O         2.126375         2.144980         1.612922
 H         5.345672        -1.254192         1.165741
 H         5.287495         0.506326         1.602649
 H         4.424515        -0.975319         2.599947
 H         2.427255        -2.147029        -0.016554
 H         1.844255        -1.581136         1.789265
 H        -0.578771         0.117598         0.936127
 H        -0.271785         0.764771        -0.824779
 H        -0.458442        -0.991153        -0.390280
 H         3.965275         1.074203        -0.996878
 H         2.628218         2.883592         1.057060
