19
Iteration:  4524
 C         4.625112        -0.268207         1.663338
 C         3.355231        -0.177432         0.820282
 C         2.141404        -1.226670         0.821056
 C         1.416504         0.001711         0.081659
 C        -0.062636        -0.016026        -0.137250
 O         2.145379         0.050501        -1.260184
 C         3.296074         0.610202        -0.466257
 C         2.431028         0.935172         0.770793
 O         2.305183         1.907765         1.653430
 H         5.294506        -1.073645         1.426918
 H         5.124774         0.792700         1.584615
 H         4.398838        -0.405535         2.697806
 H         2.196125        -2.064655         0.118601
 H         1.671681        -1.303862         1.803184
 H        -0.499570        -0.110499         0.866979
 H        -0.430744         0.980898        -0.564995
 H        -0.398621        -0.931436        -0.677770
 H         4.103193         1.144792        -0.933986
 H         1.760924         2.586517         1.234587
