19
Iteration:  3537
 C         4.645001        -0.433012         1.614382
 C         3.371036        -0.172805         0.848782
 C         2.106853        -1.084499         0.853175
 C         1.447893        -0.033986         0.068301
 C        -0.032013        -0.009968        -0.136474
 O         2.166770         0.009815        -1.251143
 C         3.276876         0.550702        -0.498330
 C         2.434804         1.019086         0.694253
 O         2.210406         2.020285         1.735361
 H         5.247628        -1.212476         1.236421
 H         5.284205         0.547385         1.539107
 H         4.257923        -0.645981         2.614599
 H         2.224517        -2.125069         0.357679
 H         1.818737        -1.232474         1.938141
 H        -0.467253        -0.120376         0.869119
 H        -0.280324         0.770856        -0.857610
 H        -0.214910        -1.100788        -0.572657
 H         4.183255         1.034655        -0.929939
 H         1.763403         2.836131         1.222260
