19
Iteration:   137charge 0 multiplicity 1
 C         4.773264        -0.458564         1.521225
 C         3.375484        -0.241664         0.944173
 C         2.090705        -1.136208         0.983678
 C         1.404786        -0.120666         0.059255
 C        -0.031552         0.140852        -0.228045
 O         2.274368         0.026082        -1.144256
 C         3.219775         0.726868        -0.431291
 C         2.343328         0.882996         0.744271
 O         2.157606         1.981213         1.538304
 H         5.185106        -1.409386         1.012456
 H         5.512265         0.284247         1.129900
 H         4.931683        -0.657264         2.615686
 H         2.108242        -2.226908         0.730584
 H         1.590439        -0.815218         1.917248
 H        -0.534928         0.352788         0.751465
 H        -0.033185         1.041732        -0.829974
 H        -0.552049        -0.711049        -0.684832
 H         4.095087         1.266084        -0.784890
 H         1.534351         2.488149         1.213141
