19
Iteration:  3966charge 0 multiplicity 1
 C         4.616701        -0.378901         1.755619
 C         3.407515        -0.241718         0.840269
 C         2.183704        -1.200916         0.675269
 C         1.438242         0.013279        -0.026327
 C         0.034832        -0.008699         0.052055
 O         2.139474         0.076499        -1.233710
 C         3.290603         0.543343        -0.441673
 C         2.365678         0.942339         0.773078
 O         2.149624         2.059911         1.543099
 H         5.340299        -1.243498         1.651627
 H         5.262592         0.524670         1.662278
 H         4.147006        -0.463260         2.798615
 H         2.355473        -2.102543         0.037088
 H         1.645233        -1.496267         1.650727
 H        -0.502078         0.115097         0.995743
 H        -0.380464         0.837980        -0.515596
 H        -0.393153        -0.965511        -0.349023
 H         4.032137         1.046038        -1.084504
 H         2.673615         2.799155         1.150322
