19
Iteration:    15charge 0 multiplicity 1
 C         4.620397        -0.360144         1.821131
 C         3.341617        -0.165791         1.006278
 C         2.159867        -1.202331         0.701808
 C         1.406556         0.027886         0.162202
 C        -0.074710        -0.036895        -0.032069
 O         2.102011         0.017574        -1.225033
 C         3.231860         0.558917        -0.525767
 C         2.494603         1.016955         0.638896
 O         2.293492         2.110130         1.406152
 H         5.135211        -1.258172         1.267234
 H         5.352748         0.398580         2.017859
 H         4.291882        -0.806116         2.809546
 H         2.406968        -1.799935        -0.370193
 H         1.655577        -1.747691         1.530689
 H        -0.624515        -0.280416         0.862408
 H        -0.447244         0.925711        -0.424518
 H        -0.198467        -0.861585        -0.748726
 H         4.162001         0.854982        -0.989462
 H         2.629319         1.740497         2.360351
