19
Iteration:  1940charge 0 multiplicity 1
 C         4.648538        -0.433873         1.641509
 C         3.261235        -0.271733         0.990735
 C         2.158231        -1.256650         0.645410
 C         1.397570         0.013890        -0.013984
 C        -0.093185        -0.054927         0.036248
 O         2.248402         0.135664        -1.242371
 C         3.296152         0.570017        -0.399007
 C         2.487104         0.987427         0.783403
 O         2.195306         2.121382         1.520640
 H         5.331190        -1.144285         1.076212
 H         5.030184         0.498826         1.930856
 H         4.410910        -1.007631         2.631442
 H         2.350183        -2.185352         0.138524
 H         1.652532        -1.475721         1.543124
 H        -0.293891        -0.039014         1.170801
 H        -0.515633         0.872627        -0.400362
 H        -0.312894        -1.114902        -0.265039
 H         4.193801         1.194232        -0.773530
 H         2.044428         2.903495         0.771632
