19
Iteration:   323
 C         4.693941        -0.489129         1.518310
 C         3.421955        -0.281661         0.864198
 C         2.170558        -1.226870         0.788070
 C         1.378690        -0.011885         0.133228
 C        -0.130293         0.133228        -0.158129
 O         2.329224        -0.017717        -1.124551
 C         3.291093         0.569522        -0.296691
 C         2.422347         0.982312         0.811525
 O         2.013225         2.161032         1.435661
 H         5.237558        -1.357325         1.210622
 H         5.343378         0.389223         1.329665
 H         4.414363        -0.636261         2.546205
 H         2.274837        -2.010042        -0.002745
 H         1.850092        -1.628790         1.811817
 H        -0.561819         0.300027         0.854145
 H        -0.247482         1.076845        -0.725425
 H        -0.667466        -0.630374        -0.735656
 H         4.145076         0.976766        -0.870205
 H         2.605621         2.381262         2.167603
