19
Iteration:   963charge 0 multiplicity 1
 C         4.662929        -0.364562         1.568477
 C         3.325454        -0.373140         0.917901
 C         2.159734        -1.238314         0.813305
 C         1.439383        -0.036509         0.000874
 C        -0.046220         0.102069        -0.196495
 O         2.168811         0.140000        -1.186146
 C         3.265225         0.565259        -0.357715
 C         2.460130         0.944875         0.833999
 O         2.207867         2.021487         1.580890
 H         5.417058        -0.935427         1.014772
 H         4.967197         0.653945         1.818098
 H         4.514019        -0.921316         2.505491
 H         2.330368        -2.217456         0.273531
 H         1.745443        -1.488818         1.799074
 H        -0.383722         0.191987         0.837741
 H        -0.330050         1.099651        -0.663157
 H        -0.609114        -0.745182        -0.651556
 H         4.021028         1.112531        -0.855440
 H         1.960012         2.726676         1.135164
