19
Iteration:  2995charge 0 multiplicity 1
 C         4.670079        -0.294485         1.691439
 C         3.373893        -0.281716         0.879405
 C         2.133225        -1.226097         0.744567
 C         1.461927        -0.093874         0.005521
 C        -0.048127         0.040861        -0.154812
 O         2.154979         0.011211        -1.207206
 C         3.198760         0.576967        -0.386443
 C         2.341289         0.947410         0.837923
 O         2.312834         2.110622         1.601141
 H         5.202994        -1.148598         1.089911
 H         5.301007         0.548169         1.349982
 H         4.631811        -0.460613         2.787156
 H         2.405515        -2.139983         0.121653
 H         1.709742        -1.605814         1.726501
 H        -0.533437         0.100728         0.840250
 H        -0.163930         0.923959        -0.803658
 H        -0.530942        -0.780781        -0.609335
 H         3.995415         1.147442        -0.902070
 H         1.783111         2.694688         1.182235
