19
Iteration:  4410
 C         4.664410        -0.425766         1.622633
 C         3.381861        -0.141795         0.938965
 C         2.122580        -1.179762         0.807410
 C         1.434256        -0.093116         0.041105
 C        -0.039355        -0.024173        -0.096250
 O         2.222540         0.006643        -1.237068
 C         3.180882         0.675269        -0.440464
 C         2.484299         1.024473         0.766055
 O         2.155325         2.041006         1.623381
 H         5.275597        -1.159069         0.969582
 H         5.334655         0.431969         1.622784
 H         4.570573        -1.067959         2.556807
 H         2.386629        -2.125243         0.182833
 H         1.581125        -1.524173         1.725655
 H        -0.636781        -0.036470         0.843209
 H        -0.168730         0.865341        -0.664511
 H        -0.496269        -0.874239        -0.615675
 H         4.101893         1.031206        -1.004869
 H         2.113949         2.936567         1.027394
