19
Iteration:  4408
 C         4.676836        -0.422462         1.607488
 C         3.387603        -0.140722         0.931350
 C         2.135938        -1.206007         0.810755
 C         1.433447        -0.071452         0.051838
 C        -0.041722        -0.015103        -0.104267
 O         2.232404         0.001529        -1.240442
 C         3.168497         0.654419        -0.446798
 C         2.469496         1.013492         0.760853
 O         2.154433         2.057505         1.632642
 H         5.294213        -1.170278         1.010916
 H         5.241300         0.418136         1.690214
 H         4.551343        -1.021176         2.562172
 H         2.372348        -2.092332         0.188170
 H         1.543612        -1.452036         1.722936
 H        -0.623223         0.001356         0.771232
 H        -0.176926         0.854987        -0.650737
 H        -0.457327        -0.870858        -0.569271
 H         4.045513         1.068700        -0.954406
 H         2.115541         2.834345         1.114983
