19
Iteration:  2882
 C         4.710191        -0.327072         1.670176
 C         3.356643        -0.301004         0.924446
 C         2.149552        -1.317215         0.744012
 C         1.363384        -0.088492         0.102031
 C        -0.067081         0.010540        -0.186674
 O         2.106768         0.127152        -1.225630
 C         3.218393         0.586114        -0.397648
 C         2.456845         0.911661         0.827150
 O         2.294355         2.133031         1.592175
 H         5.473550        -1.022638         1.286910
 H         5.237548         0.528049         1.424704
 H         4.593000        -0.337483         2.787846
 H         2.320791        -2.315144         0.277656
 H         1.584511        -1.368237         1.687536
 H        -0.688557        -0.252793         0.583007
 H        -0.234823         0.948471        -0.570850
 H        -0.265150        -0.692626        -0.970859
 H         4.125341         1.077790        -0.904394
 H         2.035886         2.835812         0.830646
