19
Iteration:  3488
 C         4.602364        -0.294033         1.728558
 C         3.316104        -0.297308         0.920097
 C         2.154551        -1.261059         0.726014
 C         1.456352        -0.066918         0.104314
 C        -0.030916        -0.085980        -0.153260
 O         2.107465         0.146989        -1.225440
 C         3.184146         0.586673        -0.410008
 C         2.411487         0.909844         0.815786
 O         2.409761         2.125470         1.539666
 H         5.286759        -1.030864         1.148112
 H         5.059343         0.648154         1.745181
 H         4.399962        -0.626680         2.773228
 H         2.273990        -2.059928         0.065619
 H         1.642072        -1.565728         1.611754
 H        -0.534766        -0.376596         0.812388
 H        -0.190240         0.971455        -0.537246
 H        -0.358423        -0.814819        -0.914310
 H         3.935097         1.083476        -0.923807
 H         1.943559         2.779037         0.909685
