19
Iteration:  1490
 C         4.591415        -0.296255         1.566545
 C         3.324253        -0.200815         0.853345
 C         2.258571        -1.303986         0.781997
 C         1.396044        -0.169149         0.090281
 C        -0.017431         0.156158        -0.276561
 O         2.161985         0.087886        -1.174358
 C         3.229588         0.583181        -0.409297
 C         2.377516         0.954233         0.835359
 O         2.296820         1.984761         1.729976
 H         5.059624        -1.298106         1.454876
 H         5.454034         0.301400         1.279417
 H         4.396580        -0.231812         2.704803
 H         2.191574        -2.165814         0.036419
 H         1.831854        -1.645816         1.673111
 H        -0.670584         0.215227         0.543094
 H        -0.019572         1.061463        -0.866111
 H        -0.601031        -0.510128        -0.874352
 H         4.053651         0.998321        -0.937456
 H         1.903662         2.688149         1.298782
