19
Iteration:  4635charge 0 multiplicity 1
 C         4.630671        -0.481519         1.647272
 C         3.426884        -0.220630         0.923886
 C         2.204046        -1.270830         0.716124
 C         1.433277        -0.059640         0.058255
 C        -0.096350        -0.093504        -0.004399
 O         2.233097         0.177741        -1.170585
 C         3.250561         0.693004        -0.457480
 C         2.407451         0.976286         0.778064
 O         2.159292         2.101076         1.499093
 H         5.038580        -1.368735         1.270977
 H         5.276579         0.405492         1.740036
 H         4.469248        -0.692022         2.670358
 H         2.206812        -2.131290         0.128407
 H         1.631855        -1.401326         1.641186
 H        -0.540604        -0.404623         0.962611
 H        -0.652389         0.788678        -0.305842
 H        -0.356004        -0.872076        -0.755687
 H         4.180488         1.182683        -1.005550
 H         2.248591         2.780784         0.948904
