19
Iteration:  3849
 C         4.615947        -0.349136         1.624531
 C         3.325356        -0.302374         0.900108
 C         2.153749        -1.223959         0.775564
 C         1.416079        -0.054070         0.014310
 C        -0.078325        -0.061567        -0.128957
 O         2.185838         0.001061        -1.270349
 C         3.218573         0.670228        -0.408190
 C         2.493153         1.006717         0.795947
 O         2.286945         2.137728         1.649993
 H         5.421913        -1.000805         1.155974
 H         5.016797         0.560828         1.596141
 H         4.487623        -0.786359         2.647337
 H         2.265973        -2.239830         0.341434
 H         1.578865        -1.422790         1.732234
 H        -0.589833        -0.156666         0.899042
 H        -0.375178         0.984104        -0.321786
 H        -0.464915        -0.784647        -0.791268
 H         4.217557         0.913335        -0.801197
 H         2.002912         2.743038         1.079309
