19
Iteration:  2492charge 0 multiplicity 1
 C         4.645456        -0.399281         1.596852
 C         3.394178        -0.206585         0.942217
 C         2.232686        -1.224254         0.816936
 C         1.407284        -0.068854         0.104257
 C        -0.054420         0.066409        -0.179015
 O         2.135250         0.017243        -1.195475
 C         3.239832         0.604096        -0.427157
 C         2.375564         0.933726         0.803389
 O         2.170276         2.086619         1.548427
 H         5.352767        -1.034562         1.106247
 H         5.255969         0.573451         1.692839
 H         4.530546        -0.856099         2.526600
 H         2.362948        -2.197559         0.236491
 H         1.787523        -1.474353         1.811245
 H        -0.616291         0.158180         0.708916
 H        -0.230829         0.897866        -0.820147
 H        -0.310577        -0.711186        -0.815218
 H         4.134565         1.012869        -0.899232
 H         2.805502         2.764605         1.410233
