19
Iteration:  1126
 C         4.614009        -0.409044         1.654536
 C         3.388418        -0.341022         0.837552
 C         2.202483        -1.282938         0.752843
 C         1.446081         0.026410         0.069846
 C        -0.044931         0.086934        -0.147875
 O         2.125291         0.147252        -1.213437
 C         3.313244         0.547839        -0.409013
 C         2.425564         0.951943         0.799784
 O         2.149383         2.042780         1.633935
 H         5.323055        -0.844695         0.946993
 H         5.007740         0.676118         1.940774
 H         4.709303        -1.089758         2.483643
 H         2.257410        -2.281748         0.280629
 H         1.671590        -1.413251         1.760956
 H        -0.553023         0.089321         0.829430
 H        -0.371546         1.001438        -0.698025
 H        -0.334301        -0.823152        -0.695480
 H         4.193166         0.997704        -0.942379
 H         2.415757         2.944555         1.168531
