19
Iteration:  3413charge 0 multiplicity 1
 C         4.603040        -0.483807         1.700553
 C         3.382364        -0.181963         0.808894
 C         2.242392        -1.166547         0.797703
 C         1.464959        -0.108127         0.095431
 C        -0.081170         0.046810        -0.055238
 O         2.214505         0.039948        -1.241021
 C         3.256446         0.613443        -0.532794
 C         2.470623         1.010355         0.731801
 O         2.122234         2.064522         1.627517
 H         4.953900        -1.476204         1.328200
 H         5.336680         0.272769         1.807888
 H         4.256847        -0.549804         2.684946
 H         2.378613        -2.170920         0.333181
 H         1.890112        -1.210471         1.848374
 H        -0.623703        -0.112336         0.954265
 H        -0.296466         1.055666        -0.565078
 H        -0.353670        -0.803653        -0.769241
 H         4.041004         1.023151        -1.101297
 H         1.824687         2.798582         1.228483
