19
Iteration:  4504charge 0 multiplicity 1
 C         4.587526        -0.301814         1.723647
 C         3.340683        -0.245044         0.821650
 C         2.206820        -1.223491         0.735702
 C         1.407176        -0.124866        -0.001460
 C        -0.078005        -0.026811        -0.071852
 O         2.192840         0.052336        -1.227649
 C         3.204570         0.662266        -0.489496
 C         2.406223         0.968634         0.748326
 O         2.304805         2.025459         1.682054
 H         5.197164        -1.189343         1.503199
 H         5.268503         0.579562         1.480288
 H         4.350854        -0.421494         2.771025
 H         2.407082        -2.171514         0.286317
 H         1.779642        -1.348070         1.767826
 H        -0.570738        -0.344735         0.844865
 H        -0.354988         1.020746        -0.399165
 H        -0.467361        -0.778588        -0.815680
 H         4.027818         1.138432        -1.093255
 H         2.357704         3.018869         1.277671
