19
Iteration:   142charge 0 multiplicity 1
 C         4.799814        -0.506670         1.536031
 C         3.366383        -0.230791         0.967639
 C         2.106603        -1.136045         1.000823
 C         1.416205        -0.123947         0.028449
 C        -0.029540         0.128740        -0.209742
 O         2.260237         0.055747        -1.213297
 C         3.205870         0.659346        -0.427291
 C         2.363412         0.905622         0.754684
 O         2.162500         2.022748         1.545549
 H         5.249193        -1.342580         1.065036
 H         5.484476         0.328004         1.215276
 H         4.919522        -0.652090         2.605232
 H         2.062322        -2.326439         0.774140
 H         1.572898        -0.890368         1.976111
 H        -0.500243         0.299281         0.753330
 H        -0.045160         1.022273        -0.875614
 H        -0.544643        -0.701265        -0.716647
 H         3.972254         1.319980        -0.854193
 H         1.181983         2.586318         1.425920
