19
Iteration:  1225charge 0 multiplicity 1
 C         4.566746        -0.429493         1.750212
 C         3.375131        -0.300905         0.835263
 C         2.183378        -1.204773         0.624648
 C         1.401656        -0.064181        -0.013756
 C        -0.141543        -0.071772        -0.036894
 O         2.168005         0.223339        -1.249529
 C         3.306931         0.687136        -0.386703
 C         2.434753         0.927002         0.815665
 O         2.292287         2.030961         1.609817
 H         4.834621        -1.488629         1.710464
 H         5.491760         0.295774         1.505376
 H         4.491725        -0.301355         2.858533
 H         2.221545        -2.143238         0.087895
 H         1.736991        -1.498973         1.579592
 H        -0.680826        -0.319630         0.900898
 H        -0.446049         0.865279        -0.474219
 H        -0.409666        -0.866059        -0.726390
 H         4.180365         1.202116        -0.785509
 H         2.547808         2.933273         1.007605
