19
Iteration:  2616
 C         4.511539        -0.319101         1.732740
 C         3.362198        -0.216006         0.823901
 C         2.177666        -1.199182         0.744878
 C         1.414622        -0.040548        -0.002952
 C        -0.074763        -0.071032        -0.047085
 O         2.194498         0.087381        -1.284091
 C         3.210958         0.586075        -0.482963
 C         2.418929         0.941504         0.782758
 O         2.350121         2.030262         1.629019
 H         4.995260        -1.295514         1.956747
 H         5.338998         0.384644         1.724362
 H         4.269004         0.106506         2.749447
 H         2.243158        -2.217101         0.203016
 H         1.658672        -1.541925         1.681334
 H        -0.510891        -0.372705         0.916462
 H        -0.427711         0.957476        -0.204138
 H        -0.469149        -0.765961        -0.719826
 H         4.068839         1.087995        -1.019735
 H         2.725474         2.851634         1.063176
