19
Iteration:  4098charge 0 multiplicity 1
 C         4.567973        -0.328249         1.659239
 C         3.370651        -0.195217         0.876708
 C         2.200519        -1.224011         0.860119
 C         1.416980        -0.098666         0.102534
 C        -0.066299        -0.080425        -0.114384
 O         2.124942         0.094073        -1.199770
 C         3.302835         0.643096        -0.547892
 C         2.403416         0.962857         0.689716
 O         2.280607         2.033820         1.633171
 H         4.861062        -1.321572         1.361491
 H         5.301102         0.428821         1.667079
 H         4.243207        -0.428704         2.719179
 H         2.343450        -2.097228         0.206020
 H         1.608857        -1.329776         1.847901
 H        -0.650531        -0.301081         0.816715
 H        -0.187866         0.927464        -0.537087
 H        -0.276676        -0.695757        -0.996375
 H         4.210266         1.051087        -0.931691
 H         2.561885         2.826789         1.093972
