19
Iteration:  3597charge 0 multiplicity 1
 C         4.654361        -0.377724         1.654334
 C         3.328277        -0.265957         0.882542
 C         2.242594        -1.321215         0.664090
 C         1.413428        -0.159875         0.072825
 C        -0.068594         0.110202        -0.063138
 O         2.194799         0.032394        -1.148511
 C         3.224864         0.678312        -0.414372
 C         2.398707         0.918285         0.834005
 O         2.178831         2.142278         1.516550
 H         5.195011        -1.347812         1.401598
 H         5.301924         0.433362         1.507144
 H         4.596361        -0.317468         2.763114
 H         2.436386        -2.070891        -0.082099
 H         2.004887        -1.747014         1.654247
 H        -0.457947         0.215250         0.955947
 H        -0.395450         0.989387        -0.583379
 H        -0.625849        -0.634433        -0.433096
 H         4.090902         1.178322        -0.957589
 H         2.404258         2.778912         0.816625
