19
Iteration:  2916charge 0 multiplicity 1
 C         4.581086        -0.406215         1.668434
 C         3.321528        -0.208314         0.960215
 C         2.260901        -1.299721         0.622635
 C         1.449292        -0.090736         0.119530
 C        -0.143692         0.023996         0.010351
 O         2.223406         0.114944        -1.229278
 C         3.277809         0.606519        -0.358621
 C         2.375279         0.926761         0.791270
 O         2.242216         2.126396         1.447802
 H         5.225410        -1.162217         1.099700
 H         4.992540         0.494614         1.936092
 H         4.557680        -0.978442         2.636308
 H         2.571665        -2.211230         0.032973
 H         1.913913        -1.607859         1.659332
 H        -0.633278         0.218336         0.917712
 H        -0.431188         0.843068        -0.539818
 H        -0.445360        -0.836657        -0.516435
 H         4.132521         1.184276        -0.662262
 H         2.057534         2.829837         0.665285
