19
Iteration:  4385charge 0 multiplicity 1
 C         4.638962        -0.333212         1.617278
 C         3.415555        -0.253691         0.809340
 C         2.180954        -1.196113         0.818656
 C         1.398213        -0.117023         0.032186
 C        -0.066493         0.057359        -0.172404
 O         2.147280         0.035012        -1.175571
 C         3.304714         0.611873        -0.366513
 C         2.395311         0.978776         0.785674
 O         2.190819         2.024809         1.639889
 H         5.320878        -0.981084         1.012748
 H         5.079429         0.586088         1.582586
 H         4.654949        -0.839383         2.591722
 H         2.329482        -2.135128         0.282240
 H         2.074844        -1.389089         1.895951
 H        -0.606022         0.238999         0.698634
 H        -0.149781         0.876575        -0.854361
 H        -0.542305        -0.826483        -0.510012
 H         4.140160         0.916627        -0.932344
 H         1.936044         2.876204         1.011002
