19
Iteration:  2206
 C         4.584608        -0.317251         1.725392
 C         3.395060        -0.274210         0.829329
 C         2.198922        -1.287613         0.743899
 C         1.331948        -0.117824         0.086823
 C        -0.052355         0.007182        -0.176293
 O         2.084349         0.141768        -1.179927
 C         3.223272         0.574554        -0.422703
 C         2.462052         0.956251         0.833799
 O         2.374591         2.072681         1.582401
 H         5.237788        -1.182821         1.476013
 H         5.423617         0.471382         1.544671
 H         4.282481        -0.283974         2.709674
 H         2.365876        -2.286666         0.265379
 H         1.807872        -1.632718         1.749105
 H        -0.756168         0.030636         0.635370
 H        -0.157999         1.005947        -0.683974
 H        -0.277779        -0.725482        -1.032879
 H         4.008219         1.108152        -1.015510
 H         1.859760         2.829597         0.967703
