19
Iteration:  2906charge 0 multiplicity 1
 C         4.637042        -0.373380         1.680616
 C         3.343741        -0.265606         0.927464
 C         2.236016        -1.303912         0.705117
 C         1.351164        -0.100245         0.067326
 C        -0.070870         0.027881        -0.073749
 O         2.171048         0.138648        -1.177518
 C         3.253794         0.625669        -0.307911
 C         2.380804         0.888689         0.832745
 O         2.288051         2.125800         1.425694
 H         5.417679        -0.943213         1.067640
 H         5.182738         0.491902         1.713798
 H         4.463834        -0.750541         2.690466
 H         2.573376        -1.996384        -0.113140
 H         1.634877        -1.797273         1.524475
 H        -0.545883         0.013053         0.906244
 H        -0.231528         0.929318        -0.617541
 H        -0.553902        -0.777395        -0.591660
 H         4.053375         1.151012        -0.738083
 H         1.937352         2.720323         0.703974
