19
Iteration:  2605charge 0 multiplicity 1
 C         4.511094        -0.357240         1.815300
 C         3.364353        -0.224277         0.809134
 C         2.239536        -1.231760         0.708214
 C         1.437442        -0.087831         0.042792
 C        -0.142714        -0.015987        -0.024620
 O         2.191937         0.024517        -1.244252
 C         3.257158         0.684370        -0.480890
 C         2.403068         1.000879         0.686476
 O         2.352908         2.045334         1.623581
 H         4.819278        -1.429517         1.712194
 H         5.248706         0.224743         1.339785
 H         4.013988        -0.235307         2.799261
 H         2.423665        -2.171877         0.070437
 H         1.836506        -1.281737         1.757735
 H        -0.391951        -0.344362         0.993137
 H        -0.712620         0.866072        -0.310813
 H        -0.440908        -0.724113        -0.734198
 H         4.148256         1.174097        -1.005507
 H         2.361787         2.845613         1.121642
