19
Iteration:  3887
 C         4.603257        -0.437846         1.614173
 C         3.356260        -0.176038         0.892498
 C         2.236676        -1.125745         0.907409
 C         1.355022        -0.038860         0.121997
 C        -0.152584        -0.040111        -0.193038
 O         2.139124         0.039978        -1.207181
 C         3.296967         0.669599        -0.442359
 C         2.505023         1.010045         0.719208
 O         2.268577         1.982299         1.587862
 H         5.169852        -1.195641         1.123951
 H         5.254048         0.598531         1.692151
 H         4.490890        -0.776898         2.631955
 H         2.486378        -2.096906         0.306529
 H         1.908590        -1.200172         1.947566
 H        -0.779612        -0.456032         0.576808
 H        -0.472682         0.876137        -0.707264
 H        -0.357652        -0.848195        -1.017035
 H         4.275624         0.907545        -0.810814
 H         1.950984         2.763489         1.221908
