19
Iteration:  4730charge 0 multiplicity 1
 C         4.611283        -0.226124         1.567185
 C         3.287229        -0.242638         0.935255
 C         2.171931        -1.226723         0.815917
 C         1.404481        -0.078432         0.058579
 C        -0.081792        -0.009271        -0.126089
 O         2.212236         0.033886        -1.301124
 C         3.229668         0.640666        -0.502848
 C         2.457752         0.988148         0.791225
 O         2.279667         1.916850         1.732403
 H         5.327691        -0.998626         1.345278
 H         4.977564         0.858396         1.543698
 H         4.529671        -0.405274         2.672911
 H         2.418930        -2.135504         0.144274
 H         1.557245        -1.423173         1.651688
 H        -0.596973        -0.004041         0.799123
 H        -0.431682         0.913002        -0.635317
 H        -0.482690        -0.839283        -0.701950
 H         4.182946         1.068854        -0.999731
 H         2.537900         2.856819         1.303821
