19
Iteration:  4652
 C         4.623252        -0.480679         1.679755
 C         3.339828        -0.252902         0.833253
 C         2.243707        -1.165189         0.738722
 C         1.395633        -0.111085         0.018664
 C        -0.057251        -0.091280        -0.027024
 O         2.182141         0.086640        -1.302097
 C         3.246683         0.659275        -0.347470
 C         2.409155         1.009838         0.814872
 O         2.214999         2.155486         1.575678
 H         5.245424        -1.314113         1.197917
 H         5.405717         0.331724         1.642602
 H         4.365162        -0.507439         2.792198
 H         2.477174        -2.136456         0.087640
 H         2.008559        -1.596670         1.721290
 H        -0.451922        -0.435550         0.921404
 H        -0.429415         0.963192        -0.153098
 H        -0.449079        -0.649576        -0.874349
 H         4.061594         1.217937        -0.669960
 H         1.856239         2.701274         0.917161
