19
Iteration:   540charge 0 multiplicity 1
 C         4.623494        -0.427310         1.720952
 C         3.299393        -0.303243         0.944509
 C         2.196383        -1.298842         0.659538
 C         1.442097        -0.006520         0.017384
 C         0.036725         0.034418        -0.029083
 O         2.100325         0.187417        -1.193924
 C         3.272383         0.579325        -0.311608
 C         2.429653         0.893927         0.830636
 O         2.231009         2.111296         1.406931
 H         5.144011        -1.409388         1.286131
 H         5.261426         0.524358         1.719823
 H         4.419106        -0.627207         2.840473
 H         2.238237        -1.858574        -0.257989
 H         1.809650        -1.832875         1.471943
 H        -0.366147         0.072323         0.962116
 H        -0.279272         0.982094        -0.565426
 H        -0.230146        -0.855528        -0.621372
 H         4.113984         1.215012        -0.543666
 H         1.842037         2.612488         0.803810
