19
Iteration:  4592charge 0 multiplicity 1
 C         4.676044        -0.398312         1.616664
 C         3.369564        -0.251767         0.860909
 C         2.195586        -1.275630         0.755893
 C         1.416956        -0.137387         0.027256
 C        -0.092107        -0.014035        -0.093895
 O         2.193729         0.093202        -1.177975
 C         3.244417         0.671188        -0.401912
 C         2.413105         0.959324         0.770274
 O         2.149137         2.122984         1.604344
 H         5.262075        -1.199319         1.175171
 H         5.206530         0.571266         1.697156
 H         4.498043        -0.858257         2.589835
 H         2.513946        -2.010113         0.098131
 H         1.922510        -1.583334         1.770221
 H        -0.498742         0.244318         0.921271
 H        -0.276141         0.817564        -0.781193
 H        -0.586219        -0.982527        -0.406034
 H         4.101578         1.230543        -0.975914
 H         2.538587         2.929875         1.161173
