19
Iteration:   379charge 0 multiplicity 1
 C         4.575444        -0.583939         1.883447
 C         3.377600        -0.292078         0.924871
 C         2.237285        -1.258450         0.747457
 C         1.490514         0.048867         0.045978
 C        -0.033000         0.047399         0.119795
 O         2.153919         0.204812        -1.326881
 C         3.259013         0.672433        -0.503553
 C         2.521891         0.940849         0.691389
 O         2.052966         2.022238         1.369099
 H         5.214723        -1.170821         1.293307
 H         5.166095         0.412212         2.066698
 H         4.405882        -0.950038         2.871148
 H         2.330532        -2.312581         0.367907
 H         1.604747        -1.315377         1.754419
 H        -0.499798        -0.087346         1.098166
 H        -0.433936         1.019927        -0.311501
 H        -0.290489        -0.816262        -0.545756
 H         4.130662         1.091898        -1.050603
 H         2.767251         2.857366         1.344853
