19
Iteration:  3407
 C         4.613159        -0.500769         1.653320
 C         3.420485        -0.140946         0.882504
 C         2.210358        -1.183279         0.798370
 C         1.432128        -0.055854         0.126884
 C        -0.118899         0.024561        -0.056159
 O         2.216302         0.047657        -1.256242
 C         3.286727         0.628357        -0.506531
 C         2.483877         1.005595         0.697373
 O         2.127789         2.010264         1.622658
 H         5.072307        -1.459657         1.467827
 H         5.409280         0.380348         1.746890
 H         4.202868        -0.570498         2.755453
 H         2.287208        -2.200665         0.328024
 H         2.092567        -1.209110         1.898664
 H        -0.738726         0.120590         0.787037
 H        -0.295940         0.941889        -0.523316
 H        -0.363028        -0.729099        -0.768000
 H         4.116211         1.026700        -1.156862
 H         1.637476         2.699129         0.943980
