19
Iteration:  1887
 C         4.624999        -0.399628         1.795799
 C         3.425589        -0.237785         0.770663
 C         2.257347        -1.210237         0.759278
 C         1.356283        -0.093814         0.119902
 C        -0.071219         0.067267        -0.105302
 O         2.099270         0.114502        -1.251876
 C         3.211528         0.672196        -0.514268
 C         2.508819         0.932351         0.741547
 O         2.237820         1.976467         1.621404
 H         5.252036        -1.368904         1.783705
 H         5.360727         0.378277         1.653108
 H         4.177510        -0.275648         2.767606
 H         2.319192        -2.165656         0.269977
 H         1.818120        -1.441912         1.736456
 H        -0.529011        -0.157633         0.930042
 H        -0.230031         1.014225        -0.627835
 H        -0.542662        -0.642500        -0.880750
 H         4.157033         1.179272        -0.899120
 H         1.921110         2.519324         1.032435
