19
Iteration:  2186charge 0 multiplicity 1
 C         4.670346        -0.415652         1.657567
 C         3.325522        -0.201119         0.938512
 C         2.231468        -1.218144         0.801206
 C         1.398896        -0.102609         0.066850
 C        -0.092468         0.037317        -0.237359
 O         2.119682        -0.025174        -1.242069
 C         3.201916         0.638166        -0.431162
 C         2.370752         0.998042         0.788471
 O         2.359920         2.075223         1.689223
 H         5.354567        -1.112053         1.195230
 H         5.137128         0.630257         1.533115
 H         4.434991        -0.606227         2.675345
 H         2.475892        -2.064120         0.252399
 H         1.704707        -1.547619         1.667362
 H        -0.582874         0.155687         0.739520
 H        -0.326432         1.015716        -0.781961
 H        -0.479604        -0.790092        -0.919852
 H         4.020434         1.048516        -1.027312
 H         2.168680         2.891010         1.003375
