19
Iteration:   285
 C         4.637576        -0.345361         1.640870
 C         3.260329        -0.224960         0.965227
 C         2.143793        -1.171087         0.941261
 C         1.442180        -0.092534         0.030761
 C        -0.018753         0.024546        -0.203609
 O         2.163395         0.153250        -1.286811
 C         3.144815         0.532777        -0.457381
 C         2.454950         0.925147         0.744920
 O         2.340120         2.050251         1.542279
 H         5.213495        -1.221767         1.236681
 H         5.276797         0.524061         1.418320
 H         4.695514        -0.432292         2.759525
 H         2.416435        -2.212605         0.477652
 H         1.541848        -1.328312         1.826117
 H        -0.538046        -0.062847         0.748986
 H        -0.293185         0.967193        -0.702492
 H        -0.407724        -0.784209        -0.839388
 H         4.076922         0.976840        -0.815717
 H         2.040847         1.801519         2.341230
