19
Iteration:  2094
 C         4.565403        -0.462486         1.746430
 C         3.372591        -0.147326         0.834332
 C         2.260309        -1.297775         0.651775
 C         1.412111        -0.123230         0.074455
 C        -0.047338         0.059580        -0.044238
 O         2.171055         0.008744        -1.273079
 C         3.208180         0.603486        -0.480246
 C         2.357789         0.913448         0.892810
 O         2.287428         2.198439         1.575540
 H         5.189351        -1.347710         1.393056
 H         5.276248         0.353392         1.726697
 H         4.178656        -0.577285         2.763284
 H         2.537032        -2.160654        -0.015355
 H         1.977876        -1.630877         1.677873
 H        -0.375815         0.153453         1.026190
 H        -0.234779         1.011813        -0.519455
 H        -0.566854        -0.675631        -0.694201
 H         3.966735         1.230666        -0.797787
 H         2.024799         3.037321         0.986542
