19
Iteration:  1206charge 0 multiplicity 1
 C         4.644658        -0.509954         1.721235
 C         3.374240        -0.220634         0.901660
 C         2.204921        -1.235225         0.713796
 C         1.433124         0.007197         0.079317
 C        -0.014870         0.012434        -0.187015
 O         2.092770         0.217434        -1.202836
 C         3.217639         0.578411        -0.474906
 C         2.401199         0.943836         0.825368
 O         2.278025         2.006463         1.611510
 H         5.201715        -1.404277         1.526215
 H         5.233844         0.354302         1.573626
 H         4.260050        -0.369639         2.775999
 H         2.471618        -2.093417        -0.019224
 H         1.840625        -1.651937         1.637853
 H        -0.432132        -0.159351         0.875737
 H        -0.375047         0.925903        -0.672693
 H        -0.284645        -0.876836        -0.797287
 H         3.966570         1.133746        -0.990996
 H         1.911215         2.908835         1.093963
