19
Iteration:  1077
 C         4.506352        -0.457314         1.721936
 C         3.334146        -0.253085         0.921956
 C         2.240537        -1.278913         0.637070
 C         1.432806        -0.124595        -0.042424
 C        -0.070866        -0.015762         0.008005
 O         2.116293         0.173539        -1.279486
 C         3.283314         0.649763        -0.402381
 C         2.406487         0.987082         0.774382
 O         2.380933         2.099720         1.599763
 H         5.098287        -1.482739         1.661771
 H         5.116486         0.495776         1.782207
 H         4.065077        -0.505152         2.792007
 H         2.627408        -2.062060        -0.073094
 H         1.825761        -1.717370         1.527355
 H        -0.487986        -0.173351         1.027623
 H        -0.407941         0.920982        -0.373129
 H        -0.472835        -0.771050        -0.671765
 H         4.147003         1.190789        -0.805594
 H         1.802531         2.908834         1.073199
