19
Iteration:  2072
 C         4.557381        -0.354904         1.744397
 C         3.337838        -0.261372         0.880956
 C         2.235587        -1.264743         0.686560
 C         1.406932        -0.097082         0.045606
 C        -0.067825         0.034176        -0.031220
 O         2.156711         0.096747        -1.211842
 C         3.246379         0.628661        -0.426138
 C         2.439968         0.957776         0.710055
 O         2.283120         2.046867         1.549241
 H         5.166651        -1.327992         1.623469
 H         5.295774         0.395609         1.465201
 H         4.312366        -0.220024         2.818979
 H         2.361482        -2.166499         0.019189
 H         1.688322        -1.531752         1.608073
 H        -0.354078        -0.131010         1.058072
 H        -0.398865         1.025696        -0.333515
 H        -0.558785        -0.668028        -0.769199
 H         4.089392         1.011496        -0.913588
 H         2.342766         2.862389         1.191342
