19
Iteration:  3731charge 0 multiplicity 1
 C         4.619606        -0.370501         1.626297
 C         3.338204        -0.266469         0.854911
 C         2.148400        -1.157453         0.810112
 C         1.442493        -0.105880         0.076713
 C        -0.057104        -0.018609        -0.130682
 O         2.162725         0.115507        -1.208621
 C         3.264527         0.576018        -0.441193
 C         2.427396         0.922918         0.809813
 O         2.294465         2.089315         1.564921
 H         5.245450        -1.244889         1.329731
 H         5.220891         0.564492         1.303392
 H         4.476899        -0.451302         2.695255
 H         2.211090        -2.165791         0.334001
 H         1.678913        -1.293067         1.795462
 H        -0.543825         0.051647         0.899843
 H        -0.274439         0.927372        -0.632064
 H        -0.228781        -0.909863        -0.667346
 H         4.038944         1.121149        -0.853264
 H         1.519458         2.423167         1.313558
