19
Iteration:  2676
 C         4.688331        -0.377803         1.627788
 C         3.318202        -0.194841         0.939039
 C         2.158729        -1.258714         0.760678
 C         1.369192        -0.121673         0.035995
 C        -0.030045         0.030974        -0.188256
 O         2.185430        -0.003435        -1.160319
 C         3.224736         0.607139        -0.414587
 C         2.343404         0.956348         0.777624
 O         2.324207         2.117919         1.624964
 H         5.330492        -1.092466         1.158078
 H         5.105759         0.537908         1.469176
 H         4.494488        -0.590908         2.664623
 H         2.353527        -2.127741         0.222013
 H         1.695458        -1.280285         1.706899
 H        -0.596247         0.023083         0.762420
 H        -0.050731         1.018130        -0.669681
 H        -0.371588        -0.657631        -1.046224
 H         4.047216         1.129648        -0.961351
 H         1.826083         2.765436         1.299450
