19
Iteration:   519
 C         4.607081        -0.475519         1.669196
 C         3.324635        -0.260323         0.893160
 C         2.209756        -1.267323         0.711756
 C         1.409572        -0.147636         0.046502
 C        -0.152768         0.018925        -0.113049
 O         2.255355         0.123088        -1.226746
 C         3.245096         0.656329        -0.382932
 C         2.471097         0.998495         0.822023
 O         2.241877         2.111876         1.572853
 H         5.114181        -1.405920         1.258035
 H         5.190255         0.472153         1.466371
 H         4.526340        -0.475817         2.781749
 H         2.418218        -2.252037         0.291509
 H         1.730649        -1.378564         1.682365
 H        -0.677194         0.113573         0.818304
 H        -0.328676         1.006092        -0.615424
 H        -0.550214        -0.817891        -0.699641
 H         4.188025         1.002209        -0.783756
 H         1.920270         2.960797         0.996069
