19
Iteration:  3333
 C         4.689084        -0.296923         1.707246
 C         3.393584        -0.225114         0.921793
 C         2.171059        -1.194193         0.719015
 C         1.417541        -0.032804         0.034799
 C        -0.100227        -0.000096        -0.166855
 O         2.105117         0.000790        -1.208441
 C         3.256552         0.593654        -0.391373
 C         2.371873         0.913487         0.784875
 O         2.271342         2.027841         1.604028
 H         5.316057        -0.985316         1.153416
 H         5.190550         0.595763         1.674958
 H         4.664658        -0.770552         2.693996
 H         2.337525        -1.963050         0.033389
 H         1.629090        -1.441730         1.624033
 H        -0.552250         0.273285         0.832252
 H        -0.431731         0.929112        -0.788790
 H        -0.484717        -0.934481        -0.638410
 H         4.149191         1.161829        -0.803587
 H         2.617737         2.833890         1.071662
