19
Iteration:  2793charge 0 multiplicity 1
 C         4.625262        -0.304514         1.725504
 C         3.356610        -0.260919         0.881645
 C         2.138326        -1.297806         0.692936
 C         1.421592        -0.074682         0.150964
 C        -0.053504         0.003168        -0.135103
 O         2.130537         0.129119        -1.224328
 C         3.198237         0.586284        -0.419104
 C         2.452938         0.900933         0.801666
 O         2.313180         2.079825         1.533022
 H         5.302175        -1.225453         1.611997
 H         5.338352         0.462066         1.540937
 H         4.361991        -0.354463         2.829284
 H         2.364632        -2.027781        -0.131853
 H         1.845629        -1.543347         1.719160
 H        -0.543643        -0.086225         0.784379
 H        -0.334484         0.942498        -0.541161
 H        -0.475252        -0.742718        -0.762149
 H         4.090690         1.112251        -0.801459
 H         2.133420         2.749048         0.922447
