19
Iteration:  2439charge 0 multiplicity 1
 C         4.536119        -0.388023         1.735704
 C         3.277764        -0.223283         0.946924
 C         2.216487        -1.241647         0.732241
 C         1.439607        -0.002798        -0.041142
 C        -0.037981        -0.045955        -0.016639
 O         2.180528         0.099584        -1.258473
 C         3.248772         0.537643        -0.421486
 C         2.410460         0.992275         0.738610
 O         2.304321         2.069279         1.549697
 H         5.006614        -1.328726         1.466149
 H         5.286445         0.349290         1.251249
 H         4.339774        -0.189050         2.795874
 H         2.605675        -2.100599         0.045805
 H         1.832758        -1.537126         1.727858
 H        -0.302475        -0.465432         1.010855
 H        -0.435538         0.976604        -0.002818
 H        -0.485248        -0.636792        -0.805877
 H         4.015317         1.087839        -0.979066
 H         2.142028         2.863499         1.228358
