19
Iteration:   192
 C         4.585409        -0.473817         1.767566
 C         3.371101        -0.286547         0.850002
 C         2.154713        -1.227888         0.677349
 C         1.400305        -0.035541         0.105546
 C        -0.070555        -0.012214        -0.014627
 O         2.198931         0.053514        -1.224709
 C         3.268294         0.671560        -0.344220
 C         2.417949         0.947677         0.733417
 O         2.280078         2.217966         1.355390
 H         5.290854        -1.231096         1.351546
 H         5.164326         0.467756         1.987390
 H         4.272451        -0.842703         2.769509
 H         2.247780        -2.020307         0.008323
 H         1.730447        -1.711166         1.553019
 H        -0.482368        -0.226593         0.997551
 H        -0.454631         0.917776        -0.422628
 H        -0.361848        -0.811153        -0.716838
 H         4.072142         1.305588        -0.671951
 H         2.190083         2.078523         2.229454
