19
Iteration:  1044
 C         4.553436        -0.449514         1.732982
 C         3.370965        -0.276705         0.862857
 C         2.114765        -1.197878         0.756201
 C         1.432836        -0.003064         0.006308
 C        -0.139729        -0.034607        -0.052073
 O         2.123366         0.138720        -1.281992
 C         3.358414         0.734573        -0.474248
 C         2.539868         0.965247         0.740719
 O         2.304962         1.980297         1.651377
 H         5.155932        -1.459591         1.794913
 H         5.394886         0.265793         1.533215
 H         4.174895        -0.159458         2.783275
 H         2.327796        -2.109844         0.215256
 H         1.612040        -1.370166         1.685414
 H        -0.619302        -0.509381         0.830249
 H        -0.808135         0.645404        -0.509139
 H        -0.152251        -0.858961        -0.765008
 H         4.135508         1.245180        -1.094586
 H         2.020947         2.812883         1.233222
