19
Iteration:    79
 C         4.596125        -0.293335         1.772391
 C         3.349904        -0.295160         0.913593
 C         2.170264        -1.245114         0.715339
 C         1.404342        -0.042347         0.041208
 C        -0.101533         0.032230        -0.018753
 O         2.156707         0.071603        -1.243990
 C         3.252086         0.582215        -0.477156
 C         2.503027         0.938200         0.760722
 O         2.240018         2.050035         1.467112
 H         5.245588        -1.161908         1.485986
 H         5.124453         0.627846         1.740664
 H         4.310868        -0.448314         2.827992
 H         2.356768        -2.074099         0.130911
 H         1.698857        -1.577330         1.596143
 H        -0.427498        -0.092328         1.005512
 H        -0.545516         0.968325        -0.394543
 H        -0.533000        -0.780095        -0.613209
 H         4.145277         1.015471        -0.952505
 H         3.039490         2.713905         1.597648
