19
Iteration:  3274charge 0 multiplicity 1
 C         4.612546        -0.427086         1.807538
 C         3.394638        -0.239830         0.897054
 C         2.172437        -1.210324         0.677292
 C         1.391958        -0.026124         0.051560
 C        -0.129693        -0.096768        -0.032983
 O         2.195355         0.043140        -1.294229
 C         3.214731         0.644679        -0.457690
 C         2.420449         0.997091         0.734312
 O         2.370651         2.139056         1.575852
 H         5.221922        -1.143693         1.254879
 H         5.170475         0.616463         2.045651
 H         4.339723        -0.635595         2.873925
 H         2.318398        -2.120023         0.034325
 H         1.540176        -1.522453         1.525034
 H        -0.468412        -0.624298         0.842600
 H        -0.583078         0.834258        -0.057528
 H        -0.590404        -0.704434        -0.822447
 H         4.093886         1.162582        -0.864805
 H         1.843191         2.785074         1.024955
