19
Iteration:   864
 C         4.678852        -0.381809         1.679973
 C         3.355163        -0.232046         0.972026
 C         2.114836        -1.243614         0.677415
 C         1.399808        -0.097986         0.006430
 C        -0.127137        -0.024666        -0.133517
 O         2.169850         0.163500        -1.260425
 C         3.208739         0.632847        -0.382180
 C         2.476927         0.978375         0.831465
 O         2.369865         2.026942         1.596269
 H         4.963584        -1.427984         1.496898
 H         5.520162         0.395039         1.509292
 H         4.367154        -0.369159         2.750492
 H         2.180955        -2.161464         0.091673
 H         1.579271        -1.436889         1.599081
 H        -0.668433        -0.130692         0.789812
 H        -0.437805         0.933433        -0.639720
 H        -0.423818        -0.870030        -0.811045
 H         4.171666         1.118094        -0.629247
 H         1.691543         2.592192         1.142215
