19
Iteration:  2528charge 0 multiplicity 1
 C         4.718840        -0.426056         1.548263
 C         3.296687        -0.231206         0.956104
 C         2.173769        -1.223566         0.798140
 C         1.447458         0.003401        -0.006096
 C        -0.071753         0.069458        -0.094115
 O         2.245669         0.000616        -1.227091
 C         3.279173         0.572769        -0.311815
 C         2.364214         0.926158         0.824685
 O         2.142449         2.089966         1.537623
 H         5.297825        -0.860612         0.732689
 H         5.046762         0.592094         1.770642
 H         4.659549        -0.896296         2.554245
 H         2.333561        -2.186137         0.191652
 H         1.733659        -1.363778         1.813051
 H        -0.583335         0.280379         0.888893
 H        -0.325696         0.940023        -0.687079
 H        -0.461421        -0.862484        -0.413220
 H         4.127620         1.031258        -0.799341
 H         2.316204         2.839957         0.892378
