19
Iteration:  2182charge 0 multiplicity 1
 C         4.652327        -0.416046         1.632859
 C         3.325162        -0.193610         0.950326
 C         2.212098        -1.190116         0.801779
 C         1.359194        -0.099033         0.042472
 C        -0.092754         0.030208        -0.218234
 O         2.150573        -0.043798        -1.236841
 C         3.204611         0.655850        -0.427860
 C         2.400304         1.023146         0.798259
 O         2.347788         2.058113         1.672013
 H         5.411690        -1.062924         1.114411
 H         5.172482         0.552768         1.583510
 H         4.497276        -0.622207         2.700319
 H         2.547843        -2.151703         0.254056
 H         1.634530        -1.591600         1.701948
 H        -0.648258         0.160673         0.717514
 H        -0.269255         0.953420        -0.746457
 H        -0.476293        -0.774477        -0.858870
 H         4.055273         1.055813        -1.038112
 H         2.226472         2.781986         1.152541
