19
Iteration:  4235
 C         4.733029        -0.400561         1.555266
 C         3.304821        -0.252115         0.994927
 C         2.152036        -1.250300         0.823714
 C         1.407494        -0.101436         0.014718
 C        -0.073089         0.009156        -0.144751
 O         2.213662         0.044286        -1.213010
 C         3.205446         0.584536        -0.377023
 C         2.464871         1.018489         0.778470
 O         2.179995         2.131806         1.604207
 H         5.380384        -1.133360         1.028328
 H         5.182123         0.531177         1.598924
 H         4.731396        -0.597943         2.604463
 H         2.413431        -2.115576         0.183206
 H         1.615117        -1.465694         1.727462
 H        -0.721822        -0.133129         0.711294
 H        -0.415945         0.891920        -0.677755
 H        -0.348514        -0.760286        -0.905594
 H         4.140943         0.919495        -0.843400
 H         2.243875         3.011754         1.068842
