19
Iteration:  1697
 C         4.689762        -0.384588         1.660669
 C         3.373643        -0.212663         0.865567
 C         2.246933        -1.225065         0.733777
 C         1.422727        -0.149571         0.113815
 C        -0.069445         0.161021        -0.184128
 O         2.130781         0.117106        -1.166038
 C         3.216760         0.631520        -0.455899
 C         2.421513         0.915420         0.803461
 O         2.207995         1.922391         1.648184
 H         5.262148        -1.255664         1.573855
 H         5.346279         0.466433         1.444263
 H         4.229421        -0.217574         2.713337
 H         2.328835        -2.143545         0.069474
 H         1.956471        -1.501587         1.724724
 H        -0.572993         0.088595         0.797118
 H        -0.089776         1.159281        -0.781295
 H        -0.497739        -0.607346        -0.906412
 H         3.957676         1.076972        -1.195684
 H         1.893419         2.722117         0.900346
