19
Iteration:  1870
 C         4.638173        -0.280770         1.701762
 C         3.382303        -0.286138         0.871376
 C         2.136498        -1.246369         0.768180
 C         1.472929        -0.065096         0.009653
 C        -0.081883         0.030960        -0.128166
 O         2.130906         0.137502        -1.228008
 C         3.261521         0.566729        -0.480808
 C         2.416443         0.955367         0.734361
 O         2.285577         1.966309         1.689860
 H         5.066156        -1.246636         1.640579
 H         5.382415         0.486361         1.264210
 H         4.442368        -0.062618         2.781116
 H         2.169951        -2.232569         0.197284
 H         1.686288        -1.420851         1.812085
 H        -0.643652        -0.173650         0.743279
 H        -0.247249         1.070474        -0.482562
 H        -0.341730        -0.714355        -0.851795
 H         3.983778         0.992949        -1.119983
 H         1.986462         2.799206         1.403387
