19
Iteration:  3006
 C         4.676614        -0.273558         1.577095
 C         3.263490        -0.246507         0.985259
 C         2.164309        -1.283644         0.731952
 C         1.352156        -0.122711         0.100878
 C        -0.004266         0.042409        -0.224877
 O         2.183516        -0.004650        -1.221344
 C         3.161478         0.594345        -0.381000
 C         2.390644         0.894691         0.838191
 O         2.381612         2.122986         1.612111
 H         5.425944        -1.198527         1.433236
 H         5.122450         0.718689         1.308975
 H         4.593697        -0.157631         2.686386
 H         2.370854        -2.033238        -0.090913
 H         1.640439        -1.651112         1.668605
 H        -0.530435         0.167931         0.743551
 H        -0.229585         1.012407        -0.704020
 H        -0.387971        -0.740016        -0.812115
 H         4.041099         1.195147        -0.738420
 H         1.718924         2.784163         1.219664
