19
Iteration:  1534
 C         4.631971        -0.389441         1.634157
 C         3.349143        -0.268381         0.850163
 C         2.093462        -1.177939         0.753996
 C         1.436996         0.004263         0.074061
 C        -0.067564         0.055260        -0.044490
 O         2.206965         0.131767        -1.237391
 C         3.346585         0.561410        -0.418878
 C         2.514652         0.973284         0.720898
 O         2.137959         1.928004         1.625688
 H         5.424999        -0.849411         1.043334
 H         5.144436         0.498785         1.940497
 H         4.383868        -0.971216         2.588981
 H         2.299533        -2.217368         0.301401
 H         1.707832        -1.169873         1.739244
 H        -0.627005        -0.103363         0.852277
 H        -0.285183         1.000082        -0.567032
 H        -0.451178        -0.703656        -0.716761
 H         4.202488         1.021982        -0.835547
 H         1.876419         2.693203         1.094040
