19
Iteration:  3308
 C         4.528685        -0.385940         1.731704
 C         3.383751        -0.258835         0.799631
 C         2.220704        -1.292059         0.845272
 C         1.458112        -0.072674         0.119822
 C        -0.081397        -0.078657        -0.130447
 O         2.108293         0.162316        -1.227869
 C         3.238132         0.640805        -0.526492
 C         2.486478         0.987113         0.733412
 O         2.267252         2.067741         1.580531
 H         5.405403        -0.921697         1.473009
 H         4.995110         0.704493         1.807659
 H         4.202665        -0.954844         2.666772
 H         2.313556        -2.317339         0.472620
 H         1.683704        -1.239527         1.804040
 H        -0.593988        -0.129282         0.814346
 H        -0.411183         0.850612        -0.486210
 H        -0.388144        -0.870266        -0.852295
 H         4.115572         0.958311        -0.949337
 H         2.710849         3.021746         1.219795
