19
Iteration:  4867
 C         4.773430        -0.291083         1.633695
 C         3.392006        -0.289021         0.945357
 C         2.226472        -1.325983         0.831701
 C         1.405928        -0.102360         0.010964
 C        -0.140653        -0.008030        -0.187768
 O         2.067113         0.171947        -1.202730
 C         3.247395         0.597917        -0.388296
 C         2.423625         0.967838         0.785564
 O         2.260331         2.051652         1.584800
 H         5.340905        -1.241656         1.304776
 H         5.235799         0.696522         1.612190
 H         4.613592        -0.592784         2.728372
 H         2.299336        -2.208184         0.196543
 H         1.728526        -1.653559         1.848397
 H        -0.742498        -0.373652         0.660927
 H        -0.536093         1.036108        -0.427633
 H        -0.195637        -0.545989        -1.162551
 H         4.076204         1.152502        -0.888490
 H         1.859945         2.821922         0.936147
