19
Iteration:  3450charge 0 multiplicity 1
 C         4.563848        -0.321670         1.736180
 C         3.368595        -0.263035         0.941255
 C         2.190391        -1.251610         0.702891
 C         1.358328        -0.107691         0.061791
 C        -0.144105        -0.043841        -0.015199
 O         2.252545         0.152424        -1.245095
 C         3.228168         0.614924        -0.432749
 C         2.447786         0.927463         0.772149
 O         2.294570         2.089239         1.502328
 H         5.161931        -1.118791         1.342442
 H         5.330092         0.527238         1.475311
 H         4.494149        -0.663491         2.810909
 H         2.428879        -2.161272         0.007381
 H         1.547401        -1.625831         1.556841
 H        -0.685807        -0.326518         0.854341
 H        -0.547985         0.888119        -0.253693
 H        -0.434589        -0.714492        -0.816313
 H         4.192120         1.142331        -0.736249
 H         2.462829         2.794506         0.939460
