19
Iteration:  3121charge 0 multiplicity 1
 C         4.614911        -0.447633         1.736589
 C         3.347154        -0.305051         0.930550
 C         2.222332        -1.308744         0.660077
 C         1.451453        -0.095280         0.103545
 C        -0.046056         0.032508        -0.036050
 O         2.143851         0.159326        -1.155119
 C         3.217448         0.684129        -0.391608
 C         2.455209         0.908921         0.780322
 O         2.236807         2.141597         1.420956
 H         5.304013        -1.060038         1.299554
 H         5.047950         0.610006         1.677265
 H         4.316175        -0.822950         2.701401
 H         2.607581        -2.060107         0.000294
 H         1.708080        -1.675461         1.527402
 H        -0.509478         0.162632         0.983356
 H        -0.358189         0.916826        -0.608408
 H        -0.475008        -0.971717        -0.552739
 H         4.092809         1.137123        -0.884393
 H         1.884966         2.585917         0.696251
