19
Iteration:  3022
 C         4.633995        -0.189002         1.589204
 C         3.276744        -0.280594         0.978465
 C         2.184754        -1.342476         0.781568
 C         1.411623        -0.126532         0.080459
 C        -0.160859         0.058625        -0.236712
 O         2.180687         0.062122        -1.136724
 C         3.221069         0.606982        -0.372568
 C         2.410801         0.965071         0.789273
 O         2.400321         2.045731         1.605075
 H         5.043650        -1.049397         1.252173
 H         5.266585         0.517948         1.026807
 H         4.672141        -0.093377         2.647599
 H         2.455224        -2.163765         0.137528
 H         1.775732        -1.689641         1.698795
 H        -0.960599        -0.153506         0.492578
 H        -0.181778         1.035520        -0.780102
 H        -0.390597        -0.716274        -1.100194
 H         4.125346         0.807222        -0.870298
 H         2.021012         2.732215         1.190772
