19
Iteration:  1558
 C         4.605759        -0.459495         1.731356
 C         3.339225        -0.308173         0.888831
 C         2.144639        -1.267974         0.710442
 C         1.462586        -0.007192        -0.019622
 C        -0.018952        -0.009588        -0.028392
 O         2.187158         0.192864        -1.245252
 C         3.243828         0.602165        -0.440427
 C         2.462763         0.965007         0.790797
 O         2.208609         2.097107         1.579698
 H         5.522009        -0.743314         1.054076
 H         5.064277         0.413128         2.160390
 H         4.361674        -1.191913         2.565939
 H         2.346823        -2.151802         0.024147
 H         1.647590        -1.487189         1.633630
 H        -0.158159        -0.237577         1.008647
 H        -0.560006         0.855143        -0.393736
 H        -0.555412        -0.840918        -0.459300
 H         4.171551         0.903598        -0.981515
 H         1.808062         2.929994         0.931324
