19
Iteration:  3204
 C         4.702316        -0.387984         1.610809
 C         3.443978        -0.302600         0.858052
 C         2.189046        -1.139076         0.847454
 C         1.409158        -0.075542         0.016693
 C        -0.125184         0.015127        -0.198698
 O         2.172317         0.055193        -1.194673
 C         3.263205         0.597664        -0.441103
 C         2.428108         1.009555         0.764808
 O         2.120446         2.048685         1.663964
 H         5.213530        -1.400792         1.195973
 H         5.529137         0.309466         1.517578
 H         4.623674        -0.475333         2.687149
 H         2.258200        -2.224586         0.454094
 H         1.903340        -1.270813         1.921261
 H        -0.705449         0.045410         0.716158
 H        -0.248482         0.957939        -0.792572
 H        -0.641364        -0.708125        -0.743703
 H         4.155073         0.890305        -0.888793
 H         2.352373         2.867823         1.420983
