19
Iteration:  4511
 C         4.581238        -0.273823         1.676089
 C         3.384080        -0.270682         0.871587
 C         2.179597        -1.199516         0.768291
 C         1.424785        -0.104247        -0.026110
 C        -0.069137        -0.007009        -0.101651
 O         2.162734         0.035551        -1.203628
 C         3.215095         0.671961        -0.476642
 C         2.440508         0.954604         0.680689
 O         2.305334         2.000144         1.706097
 H         5.170840        -1.136044         1.388339
 H         5.353661         0.595218         1.640432
 H         4.194237        -0.348682         2.697265
 H         2.188204        -2.262776         0.308925
 H         1.894973        -1.532100         1.768881
 H        -0.417653        -0.255952         0.915882
 H        -0.601572         0.922060        -0.448304
 H        -0.435752        -0.749019        -0.821702
 H         3.966311         1.249722        -0.882405
 H         2.184665         2.945975         1.177780
