19
Iteration:  1538charge 0 multiplicity 1
 C         4.615596        -0.411105         1.646125
 C         3.319685        -0.272730         0.826877
 C         2.119994        -1.156432         0.735048
 C         1.435310         0.018003         0.068351
 C        -0.033127         0.033739        -0.007423
 O         2.191955         0.154736        -1.264102
 C         3.374788         0.515908        -0.399006
 C         2.486235         0.971347         0.735674
 O         2.134191         1.954694         1.631302
 H         5.560496        -0.852502         1.078992
 H         5.063712         0.561096         1.948873
 H         4.466484        -1.009626         2.555542
 H         2.257024        -2.141377         0.365862
 H         1.700630        -1.224382         1.770906
 H        -0.696785        -0.129453         0.853958
 H        -0.274270         0.938065        -0.561845
 H        -0.409095        -0.707331        -0.723902
 H         4.249892         1.038489        -0.859483
 H         1.898456         2.649608         0.920545
