19
Iteration:  1885charge 0 multiplicity 1
 C         4.642669        -0.388425         1.780596
 C         3.419976        -0.248950         0.782562
 C         2.231304        -1.218897         0.762733
 C         1.346297        -0.101624         0.122556
 C        -0.059644         0.052515        -0.117090
 O         2.095116         0.120362        -1.253854
 C         3.223223         0.658489        -0.514976
 C         2.519212         0.946375         0.731335
 O         2.241725         1.967511         1.636470
 H         5.262703        -1.332842         1.812634
 H         5.356608         0.359706         1.654244
 H         4.154891        -0.212494         2.804026
 H         2.308674        -2.152910         0.269568
 H         1.838260        -1.417023         1.702261
 H        -0.510187        -0.135699         0.911361
 H        -0.249681         1.015586        -0.616613
 H        -0.564020        -0.580780        -0.878990
 H         4.139558         1.206167        -0.875049
 H         1.855685         2.706106         1.011601
