19
Iteration:  3611
 C         4.545411        -0.408434         1.669880
 C         3.391360        -0.194445         0.897689
 C         2.279686        -1.244080         0.705472
 C         1.437633        -0.099596         0.130866
 C        -0.053509         0.035937         0.015076
 O         2.149661         0.053914        -1.185934
 C         3.212726         0.630954        -0.427171
 C         2.462886         0.987362         0.738406
 O         2.167656         2.046890         1.476413
 H         5.063759        -1.336694         1.334059
 H         5.292525         0.437776         1.509329
 H         4.150337        -0.608569         2.642448
 H         2.540534        -2.000706        -0.018033
 H         1.756730        -1.687921         1.513240
 H        -0.595922         0.116998         1.012342
 H        -0.074364         1.008234        -0.524239
 H        -0.381559        -0.782671        -0.719048
 H         4.104763         1.114829        -0.889445
 H         2.603799         2.891405         1.222203
