19
Iteration:  1012charge 0 multiplicity 1
 C         4.623557        -0.365137         1.585638
 C         3.313006        -0.170506         0.878426
 C         2.172204        -1.258114         0.759422
 C         1.425760        -0.114952         0.016740
 C        -0.055368         0.099015        -0.226076
 O         2.135601         0.058593        -1.192638
 C         3.292944         0.619614        -0.402568
 C         2.360086         0.958125         0.810787
 O         2.324334         2.005238         1.736258
 H         4.923079        -1.456313         1.331394
 H         5.364862         0.426115         1.248025
 H         4.466442        -0.344474         2.712158
 H         2.324090        -2.276283         0.448396
 H         1.738240        -1.349009         1.771567
 H        -0.687327        -0.108215         0.655144
 H        -0.331118         0.969766        -0.779351
 H        -0.146471        -0.800015        -0.830773
 H         4.121464         1.036899        -1.034626
 H         2.139450         2.921959         1.211087
