19
Iteration:  3560charge 0 multiplicity 1
 C         4.666231        -0.360222         1.594201
 C         3.341008        -0.248947         0.990728
 C         2.116782        -1.234284         0.831342
 C         1.424735        -0.029550         0.031599
 C        -0.081053         0.018265        -0.124167
 O         2.183605         0.154006        -1.168848
 C         3.290387         0.625923        -0.448563
 C         2.500079         0.903983         0.762246
 O         2.207393         2.002101         1.541769
 H         5.154387        -1.192510         1.176611
 H         5.230127         0.557789         1.182280
 H         4.654228        -0.370520         2.703837
 H         2.192938        -2.253089         0.291232
 H         1.717694        -1.416764         1.880966
 H        -0.418734         0.164023         0.879704
 H        -0.229504         0.824779        -0.832514
 H        -0.524560        -0.982110        -0.466818
 H         4.166109         0.877282        -0.980411
 H         1.563121         2.453541         1.045527
