19
Iteration:  2417
 C         4.563160        -0.373993         1.774717
 C         3.374184        -0.222339         0.887627
 C         2.167610        -1.258508         0.648117
 C         1.361954        -0.117139         0.022355
 C        -0.154755        -0.034484         0.013661
 O         2.238470         0.060678        -1.239649
 C         3.231954         0.674636        -0.441910
 C         2.454562         0.948778         0.783113
 O         2.358393         2.114062         1.517828
 H         5.064320        -1.329797         1.658032
 H         5.501574         0.270124         1.496061
 H         4.290334        -0.215566         2.828437
 H         2.414917        -2.083552        -0.121695
 H         1.779242        -1.674004         1.601853
 H        -0.696806        -0.304579         1.002600
 H        -0.328594         1.026119        -0.263169
 H        -0.467077        -0.556644        -0.873158
 H         4.203943         1.081055        -0.849955
 H         1.568424         2.847234         1.305982
