19
Iteration:  1826charge 0 multiplicity 1
 C         4.709690        -0.311047         1.609007
 C         3.302814        -0.222609         0.899666
 C         2.073798        -1.254158         0.719323
 C         1.368427        -0.105922         0.011194
 C        -0.107257        -0.031693        -0.256564
 O         2.177253         0.070374        -1.194620
 C         3.261285         0.607383        -0.423316
 C         2.359824         0.982319         0.813967
 O         2.390978         2.043935         1.754421
 H         5.204466        -1.176700         1.236714
 H         5.284925         0.670442         1.411703
 H         4.767964        -0.367007         2.726183
 H         2.355960        -2.252482         0.311285
 H         1.631231        -1.258020         1.763802
 H        -0.686425        -0.157871         0.618734
 H        -0.477332         0.956984        -0.502368
 H        -0.301756        -0.887399        -0.862160
 H         4.214496         0.954599        -0.816237
 H         2.149738         2.973217         1.173500
