19
Iteration:  3574
 C         4.760058        -0.336784         1.597765
 C         3.345347        -0.314355         0.943820
 C         2.185670        -1.245499         0.773542
 C         1.410840        -0.125095         0.043286
 C        -0.065513         0.082579        -0.081974
 O         2.163324         0.144399        -1.271943
 C         3.251622         0.536495        -0.318330
 C         2.371708         0.908964         0.810256
 O         2.221757         2.072756         1.516230
 H         5.311617        -1.293073         1.393821
 H         5.365141         0.475581         1.431542
 H         4.730542        -0.235446         2.725835
 H         2.410216        -2.132130         0.172862
 H         1.537680        -1.457952         1.669243
 H        -0.585175         0.305222         0.812879
 H        -0.384265         0.849048        -0.773039
 H        -0.500345        -0.725354        -0.433140
 H         4.081621         1.157780        -0.624062
 H         1.614061         2.761914         0.985570
