19
Iteration:  2507charge 0 multiplicity 1
 C         4.734351        -0.383690         1.592955
 C         3.240714        -0.238238         0.952801
 C         2.144393        -1.279255         0.788259
 C         1.445276        -0.186582         0.071126
 C        -0.017745         0.065148        -0.153189
 O         2.231840         0.008118        -1.184800
 C         3.184053         0.594330        -0.416227
 C         2.455140         1.060539         0.760950
 O         2.121498         2.140149         1.605148
 H         5.256798        -0.877949         0.737143
 H         5.239537         0.532503         1.699330
 H         4.588411        -1.019627         2.544834
 H         2.386650        -2.120798         0.079653
 H         1.784792        -1.505921         1.788065
 H        -0.584680         0.293259         0.848329
 H        -0.110568         1.019228        -0.742112
 H        -0.607307        -0.779216        -0.638147
 H         4.120188         0.870143        -0.895152
 H         2.887588         2.886636         1.190778
