19
Iteration:   892charge 0 multiplicity 1
 C         4.534943        -0.492294         1.766849
 C         3.368938        -0.274303         0.864818
 C         2.212965        -1.301759         0.676002
 C         1.448888        -0.094183         0.050488
 C        -0.037141        -0.011026        -0.028238
 O         2.121978         0.227120        -1.252788
 C         3.252314         0.611142        -0.423294
 C         2.492804         1.011760         0.751143
 O         2.286414         2.113106         1.536504
 H         5.157840        -1.331429         1.491842
 H         5.086993         0.423535         1.888419
 H         4.113196        -0.699117         2.747613
 H         2.384973        -2.110240        -0.064935
 H         1.790411        -1.783896         1.622211
 H        -0.438080        -0.138507         1.026828
 H        -0.473843         0.897397        -0.385164
 H        -0.359632        -0.891116        -0.586398
 H         4.077995         1.294637        -0.654541
 H         1.704638         2.769604         0.967641
