19
Iteration:   259charge 0 multiplicity 1
 C         4.552629        -0.334579         1.733337
 C         3.393941        -0.293266         0.704212
 C         2.098199        -1.164184         0.705280
 C         1.402875         0.008923         0.055492
 C        -0.185388        -0.090456        -0.137141
 O         2.185913        -0.030118        -1.144830
 C         3.295588         0.595087        -0.402979
 C         2.456343         0.991734         0.713528
 O         2.451463         2.150112         1.587060
 H         5.364907        -1.057062         1.725208
 H         5.087015         0.711540         1.739936
 H         4.096762        -0.393631         2.743123
 H         2.016243        -1.979255         0.080682
 H         1.812025        -1.413292         1.745907
 H        -0.626136        -0.375681         0.840651
 H        -0.586687         0.892689        -0.467198
 H        -0.557319        -0.781467        -0.915922
 H         4.014253         1.215535        -0.913580
 H         1.881209         1.962404         2.367031
