19
Iteration:  4035charge 0 multiplicity 1
 C         4.647102        -0.355310         1.562109
 C         3.260379        -0.303272         0.970801
 C         2.170297        -1.259756         0.795116
 C         1.474427        -0.058718         0.073829
 C         0.007554        -0.009040        -0.135334
 O         2.155654         0.063271        -1.199885
 C         3.246285         0.563417        -0.409917
 C         2.414797         0.977623         0.822515
 O         2.256710         2.177142         1.571246
 H         5.403378        -1.092147         1.049538
 H         5.129503         0.591144         1.536768
 H         4.608822        -0.777053         2.642994
 H         2.427969        -2.060235         0.139432
 H         1.491850        -1.482531         1.651101
 H        -0.641664        -0.112943         0.752775
 H        -0.224520         0.958838        -0.631798
 H        -0.278071        -0.846571        -0.730733
 H         4.123851         0.932457        -0.900978
 H         1.570368         2.645858         0.898815
