19
Iteration:  2927charge 0 multiplicity 1
 C         4.584230        -0.487038         1.725694
 C         3.338329        -0.245371         0.923728
 C         2.271603        -1.232926         0.698583
 C         1.429485        -0.079692         0.031548
 C        -0.108953         0.006869         0.059853
 O         2.257994         0.084997        -1.256019
 C         3.269551         0.633027        -0.415981
 C         2.421560         0.987253         0.744827
 O         2.157197         2.137404         1.494935
 H         5.328944        -0.967625         0.995506
 H         5.060662         0.397133         1.966175
 H         4.204336        -1.038185         2.618417
 H         2.302326        -2.067171        -0.062954
 H         1.900316        -1.639935         1.690453
 H        -0.406614         0.059828         1.068198
 H        -0.412510         0.747725        -0.576480
 H        -0.568679        -0.905529        -0.233642
 H         4.107549         1.104972        -0.890718
 H         2.229430         3.027666         0.873152
