19
Iteration:  1286charge 0 multiplicity 1
 C         4.630101        -0.429360         1.749859
 C         3.432629        -0.304812         0.815261
 C         2.186289        -1.268155         0.789466
 C         1.424590        -0.047109         0.024715
 C        -0.106948         0.037741        -0.149278
 O         2.124675         0.178813        -1.235303
 C         3.208501         0.702946        -0.451451
 C         2.518615         0.937465         0.759240
 O         2.255506         1.997398         1.642818
 H         5.078924        -1.479795         1.710975
 H         5.369179         0.291130         1.516237
 H         4.265963        -0.275164         2.754156
 H         2.399688        -2.044549        -0.003908
 H         1.858433        -1.664101         1.828912
 H        -0.719361         0.059038         0.798218
 H        -0.385209         1.024466        -0.711122
 H        -0.424312        -0.761472        -0.910041
 H         4.130826         1.135279        -0.936810
 H         1.679043         2.612020         1.471205
