19
Iteration:   373
 C         4.560422        -0.603362         1.830088
 C         3.377182        -0.268872         1.011133
 C         2.216902        -1.232264         0.804804
 C         1.515027        -0.001809         0.035925
 C        -0.029483         0.060313         0.113374
 O         2.109531         0.210111        -1.332316
 C         3.312354         0.724781        -0.522581
 C         2.562247         0.909800         0.664774
 O         2.008153         2.026587         1.362703
 H         5.311099        -1.267199         1.260829
 H         5.054343         0.347920         1.843800
 H         4.322683        -1.094502         2.822568
 H         2.490730        -2.209434         0.400543
 H         1.737310        -1.289542         1.725298
 H        -0.420016        -0.064416         1.132413
 H        -0.411543         0.927381        -0.393026
 H        -0.362869        -0.717347        -0.579543
 H         4.274485         1.048233        -0.857344
 H         2.791705         2.733810         1.385662
