19
Iteration:   762
 C         4.588929        -0.438912         1.725651
 C         3.323772        -0.294285         0.932397
 C         2.177465        -1.318754         0.582567
 C         1.446878        -0.059147         0.051217
 C        -0.056093         0.134004         0.050118
 O         2.214423         0.052218        -1.227729
 C         3.265198         0.696961        -0.347854
 C         2.446146         0.946596         0.754841
 O         2.221377         2.126186         1.497505
 H         5.288055        -1.005506         1.146403
 H         5.111597         0.600009         1.805179
 H         4.371377        -0.932975         2.653551
 H         2.610057        -2.053980        -0.046158
 H         1.653904        -1.873125         1.448765
 H        -0.418821        -0.190613         1.087564
 H        -0.443031         0.965813        -0.515807
 H        -0.435034        -0.700915        -0.592655
 H         4.179297         0.977251        -0.821447
 H         1.662206         2.626307         1.023022
