19
Iteration:   794
 C         4.705581        -0.357292         1.629825
 C         3.425591        -0.264866         0.888951
 C         2.131110        -1.211540         0.825652
 C         1.380246        -0.115780        -0.009013
 C        -0.082371         0.114257        -0.204933
 O         2.135724         0.118679        -1.211100
 C         3.263906         0.614397        -0.421034
 C         2.457914         0.903254         0.807413
 O         2.173663         1.974181         1.628782
 H         5.267383        -1.132915         1.153788
 H         5.244225         0.590317         1.670832
 H         4.503389        -0.685232         2.632493
 H         2.420864        -2.223509         0.515423
 H         1.610661        -1.259818         1.865297
 H        -0.612892         0.036382         0.809006
 H        -0.286007         1.102026        -0.620217
 H        -0.419759        -0.713682        -0.871228
 H         4.226666         0.935145        -0.770585
 H         2.563020         2.931137         1.221288
