19
Iteration:  3987charge 0 multiplicity 1
 C         4.525129        -0.433490         1.755920
 C         3.364362        -0.201532         0.869814
 C         2.258454        -1.226158         0.783239
 C         1.457192        -0.101366         0.063810
 C        -0.016128         0.010502         0.009610
 O         2.141407         0.079906        -1.296205
 C         3.253939         0.648184        -0.513727
 C         2.518257         0.999934         0.712062
 O         2.130073         2.051351         1.544143
 H         5.197767        -1.191239         1.400706
 H         5.194083         0.451761         1.810783
 H         4.226102        -0.775370         2.742354
 H         2.345773        -2.140845         0.125453
 H         1.921270        -1.411878         1.853588
 H        -0.504527         0.084741         1.005687
 H        -0.389135         0.876919        -0.546273
 H        -0.530039        -0.944024        -0.302887
 H         4.148599         1.057450        -1.017094
 H         2.565285         2.800280         1.275519
