19
Iteration:  1678
 C         4.642308        -0.310199         1.621517
 C         3.340514        -0.199346         0.816974
 C         2.228501        -1.241850         0.818459
 C         1.387966        -0.041561         0.067630
 C        -0.050390         0.116453        -0.208255
 O         2.150084         0.002026        -1.249570
 C         3.235717         0.647935        -0.424730
 C         2.393808         0.951611         0.732799
 O         2.288134         1.946682         1.777322
 H         4.947955        -1.379800         1.411863
 H         5.422056         0.225737         1.186398
 H         4.515335        -0.272718         2.746762
 H         2.504658        -2.258849         0.321175
 H         1.673243        -1.533830         1.727908
 H        -0.649554        -0.069218         0.696394
 H        -0.065625         1.086713        -0.732040
 H        -0.321404        -0.678349        -0.929591
 H         4.077501         1.149176        -0.895730
 H         1.602359         2.732008         1.427620
