19
Iteration:  2863
 C         4.578605        -0.319120         1.574018
 C         3.332233        -0.188545         0.882838
 C         2.162159        -1.164175         0.873815
 C         1.391696        -0.035721         0.074833
 C        -0.077535        -0.029815        -0.230429
 O         2.183180         0.055771        -1.172148
 C         3.255682         0.573087        -0.432903
 C         2.435950         0.975681         0.713729
 O         2.313645         1.956406         1.673153
 H         5.233377        -1.271733         1.404998
 H         5.337426         0.440178         1.399825
 H         4.482352        -0.291242         2.654361
 H         2.280580        -2.048780         0.207319
 H         1.898176        -1.259403         1.957819
 H        -0.680836        -0.447375         0.645027
 H        -0.516863         0.986871        -0.405799
 H        -0.389270        -0.657854        -1.106636
 H         4.098701         0.923191        -0.976842
 H         2.219809         2.949975         1.229830
