19
Iteration:  1375charge 0 multiplicity 1
 C         4.581671        -0.443781         1.696483
 C         3.355838        -0.302572         0.901094
 C         2.211230        -1.272076         0.702358
 C         1.431856        -0.081165         0.092010
 C        -0.053923         0.037065        -0.126677
 O         2.165652         0.248519        -1.227351
 C         3.194775         0.641704        -0.375568
 C         2.475279         0.928428         0.821410
 O         2.256674         2.030889         1.552002
 H         5.298663        -0.835145         0.958453
 H         5.073546         0.469294         1.958563
 H         4.482011        -1.113028         2.498452
 H         2.212745        -2.262019         0.224768
 H         1.815818        -1.500512         1.783549
 H        -0.577893        -0.081655         0.852506
 H        -0.205761         1.015916        -0.674773
 H        -0.438660        -0.753256        -0.841761
 H         4.096502         1.025166        -0.794603
 H         1.983719         2.737194         0.802963
