19
Iteration:  2657charge 0 multiplicity 1
 C         4.658525        -0.226386         1.649917
 C         3.318122        -0.323945         0.914867
 C         2.162048        -1.242342         0.803863
 C         1.382656        -0.044018         0.066282
 C        -0.127330         0.022351        -0.221062
 O         2.165422         0.099908        -1.204488
 C         3.230636         0.560224        -0.389313
 C         2.450104         0.908382         0.820783
 O         2.332230         2.036992         1.591310
 H         5.125167        -1.184901         1.485650
 H         5.249631         0.730777         1.244994
 H         4.449440        -0.281904         2.698949
 H         2.312479        -2.182862         0.170330
 H         1.841495        -1.710075         1.756954
 H        -0.712860        -0.176522         0.716087
 H        -0.459867         0.974412        -0.645554
 H        -0.352582        -0.701503        -1.030950
 H         4.191560         1.009962        -0.848179
 H         2.353894         2.739009         1.016735
