19
Iteration:  1402
 C         4.606879        -0.572767         1.850439
 C         3.417625        -0.220222         0.843920
 C         2.301988        -1.209504         0.589446
 C         1.432863        -0.032860         0.048303
 C        -0.107319        -0.024204        -0.107252
 O         2.085739         0.126580        -1.205150
 C         3.191781         0.673249        -0.412341
 C         2.400840         1.013782         0.728814
 O         2.327569         2.101860         1.617766
 H         5.192294        -1.441876         1.410562
 H         5.293644         0.353710         1.975691
 H         4.166762        -1.042536         2.826680
 H         2.311249        -2.153932        -0.008664
 H         1.885257        -1.502790         1.536231
 H        -0.540199        -0.246308         0.859710
 H        -0.455442         0.895202        -0.529008
 H        -0.281212        -0.802246        -0.821994
 H         4.036714         1.130924        -1.001943
 H         1.703627         2.892445         1.147699
