19
Iteration:   245
 C         4.483956        -0.323840         1.846333
 C         3.403560        -0.315271         0.841626
 C         2.155030        -1.190269         0.646245
 C         1.342761        -0.000972         0.118804
 C        -0.081135        -0.065100        -0.073823
 O         2.159276         0.037732        -1.256860
 C         3.181411         0.614319        -0.499155
 C         2.460811         0.985054         0.775557
 O         2.484594         2.157092         1.489212
 H         5.232471        -1.086556         1.576137
 H         4.941337         0.627185         1.888839
 H         4.098683        -0.532421         2.842510
 H         2.251817        -2.039544        -0.051754
 H         1.745584        -1.643225         1.563719
 H        -0.524182        -0.544515         0.832358
 H        -0.640135         0.829347        -0.290298
 H        -0.120238        -0.834229        -0.858832
 H         3.999037         1.048034        -1.077801
 H         2.222641         1.881164         2.469949
