19
Iteration:  1288
 C         4.620392        -0.443147         1.735924
 C         3.452804        -0.294465         0.802270
 C         2.177103        -1.268180         0.793930
 C         1.426097        -0.051911         0.014763
 C        -0.094704         0.043260        -0.141604
 O         2.124011         0.172163        -1.238845
 C         3.203372         0.716332        -0.433290
 C         2.513358         0.923801         0.766579
 O         2.261046         1.990510         1.648677
 H         5.089206        -1.454861         1.741142
 H         5.373061         0.419137         1.517203
 H         4.325408        -0.305363         2.758572
 H         2.370631        -2.061133         0.080879
 H         1.859674        -1.621009         1.851776
 H        -0.808402         0.116962         0.694038
 H        -0.327575         1.006069        -0.702369
 H        -0.377108        -0.727915        -0.901363
 H         4.084382         1.081961        -0.969156
 H         1.531192         2.693961         1.401280
