19
Iteration:  1290
 C         4.615570        -0.452621         1.719937
 C         3.464203        -0.284802         0.794764
 C         2.172221        -1.264618         0.795223
 C         1.426034        -0.057295         0.013308
 C        -0.083009         0.052072        -0.139774
 O         2.124440         0.165964        -1.241203
 C         3.204478         0.723525        -0.424834
 C         2.499200         0.915110         0.778456
 O         2.265421         1.985849         1.654522
 H         5.101170        -1.413455         1.748629
 H         5.354730         0.484015         1.529655
 H         4.362283        -0.322803         2.789953
 H         2.333971        -2.111920         0.160613
 H         1.866969        -1.551670         1.814230
 H        -0.865286         0.145528         0.609730
 H        -0.259857         0.967487        -0.682276
 H        -0.337913        -0.695464        -0.869807
 H         4.038143         1.044062        -0.993832
 H         1.446714         2.706704         1.327531
