19
Iteration:  1298
 C         4.621442        -0.435771         1.688410
 C         3.419513        -0.267155         0.800644
 C         2.198303        -1.225033         0.738554
 C         1.426212        -0.089938         0.080976
 C        -0.033940         0.096812        -0.165464
 O         2.133168         0.145612        -1.229048
 C         3.229701         0.692237        -0.455398
 C         2.409414         0.907354         0.834204
 O         2.268341         1.980431         1.677182
 H         5.248732        -1.352245         1.511974
 H         5.322447         0.415113         1.576845
 H         4.321180        -0.381497         2.717392
 H         2.168461        -2.294482         0.413609
 H         1.773755        -1.215283         1.829367
 H        -0.796297         0.067211         0.633289
 H        -0.060611         1.055077        -0.791154
 H        -0.326914        -0.757780        -0.853671
 H         4.053802         1.148628        -1.041612
 H         1.485749         2.415145         1.066306
