19
Iteration:  1478charge 0 multiplicity 1
 C         4.632923        -0.328487         1.630907
 C         3.326245        -0.294601         0.861757
 C         2.174361        -1.312991         0.734465
 C         1.389375        -0.042010         0.078385
 C        -0.082360         0.100955        -0.272596
 O         2.145962         0.117327        -1.127390
 C         3.251744         0.649028        -0.430957
 C         2.412880         0.898593         0.802012
 O         2.300379         1.980038         1.703287
 H         5.023777        -1.302474         1.614761
 H         5.197524         0.473804         1.098861
 H         4.564930         0.074216         2.686530
 H         2.579265        -2.168782         0.093976
 H         1.984431        -1.652689         1.747001
 H        -0.632322         0.243946         0.636508
 H        -0.150956         1.040219        -0.795402
 H        -0.244453        -0.766033        -0.896944
 H         4.158596         0.938778        -0.965462
 H         1.969713         2.769671         1.220041
