19
Iteration:  2342charge 0 multiplicity 1
 C         4.672319        -0.357823         1.521319
 C         3.316582        -0.236392         0.944389
 C         2.100682        -1.160586         0.736774
 C         1.389793        -0.069209        -0.009032
 C        -0.035895         0.009952        -0.140871
 O         2.267191        -0.022887        -1.179868
 C         3.264524         0.581834        -0.340253
 C         2.339086         0.948607         0.784011
 O         2.255176         2.077250         1.668623
 H         5.327472        -0.845503         0.847780
 H         5.176913         0.575896         1.714762
 H         4.546798        -0.793362         2.511295
 H         2.070052        -2.029177         0.180453
 H         1.519378        -1.191089         1.590710
 H        -0.386464         0.212990         0.954873
 H        -0.282674         0.906892        -0.746960
 H        -0.441045        -0.977236        -0.383661
 H         4.184464         1.031990        -0.865319
 H         2.220873         2.894931         0.918556
