19
Iteration:  2912charge 0 multiplicity 1
 C         4.583181        -0.403180         1.659568
 C         3.332391        -0.213676         0.940078
 C         2.251283        -1.319487         0.653951
 C         1.389355        -0.090279         0.109065
 C        -0.104284         0.023512        -0.020199
 O         2.201290         0.124525        -1.208897
 C         3.269047         0.611518        -0.318522
 C         2.381253         0.896433         0.804010
 O         2.264796         2.131887         1.429663
 H         5.298190        -1.012157         1.159094
 H         5.208367         0.608033         1.871604
 H         4.588853        -0.906084         2.674654
 H         2.644093        -2.083971        -0.007007
 H         1.752625        -1.640159         1.547729
 H        -0.648070         0.142230         0.942680
 H        -0.360154         0.961740        -0.617997
 H        -0.519434        -0.861322        -0.584781
 H         4.185772         1.223911        -0.710825
 H         2.021889         2.667668         0.749685
