19
Iteration:  3794
 C         4.540296        -0.375922         1.738204
 C         3.426719        -0.298268         0.834136
 C         2.200680        -1.334127         0.750909
 C         1.384678        -0.130356         0.073413
 C        -0.026858         0.057903        -0.032332
 O         2.184179         0.117126        -1.237366
 C         3.212689         0.730793        -0.504999
 C         2.446959         0.913631         0.736878
 O         2.245241         2.115849         1.573816
 H         5.268349        -1.229870         1.547397
 H         5.079859         0.464311         1.570488
 H         4.238192        -0.415347         2.825492
 H         2.450813        -2.238842         0.150680
 H         1.836615        -1.610515         1.821105
 H        -0.408748        -0.084650         1.041121
 H        -0.487720         0.857513        -0.619011
 H        -0.510147        -0.831091        -0.326744
 H         4.017943         1.110481        -1.029852
 H         2.280714         2.749106         0.969309
