19
Iteration:  4467
 C         4.619722        -0.454086         1.749968
 C         3.369915        -0.257721         0.898084
 C         2.226459        -1.312764         0.662299
 C         1.427593        -0.028654         0.041479
 C        -0.072964        -0.088305        -0.073534
 O         2.131067         0.143079        -1.126650
 C         3.216382         0.682388        -0.419399
 C         2.422783         0.991797         0.796938
 O         2.280448         2.103258         1.496681
 H         5.286457        -1.246914         1.381346
 H         5.273828         0.513555         1.479993
 H         4.498022        -0.249997         2.821321
 H         2.501027        -2.308768         0.092191
 H         1.629089        -1.654335         1.546413
 H        -0.473526        -0.380857         0.931702
 H        -0.620256         0.880081        -0.309185
 H        -0.271359        -0.688890        -0.983213
 H         3.930257         1.181518        -1.032074
 H         2.001908         2.883003         0.777947
