19
Iteration:  4271charge 0 multiplicity 1
 C         4.598027        -0.404867         1.679951
 C         3.335849        -0.281348         0.925192
 C         2.248526        -1.193975         0.759523
 C         1.419182        -0.099769         0.075043
 C        -0.147525        -0.069838        -0.087283
 O         2.168653         0.161698        -1.220560
 C         3.216093         0.625734        -0.404431
 C         2.442339         0.976357         0.764517
 O         2.328181         2.097162         1.497314
 H         5.191192        -1.248866         1.567183
 H         5.338942         0.485482         1.473991
 H         4.150183        -0.501178         2.632843
 H         2.493199        -2.170146         0.302463
 H         1.827403        -1.553850         1.707705
 H        -0.764309        -0.494193         0.810064
 H        -0.326042         0.993637        -0.391654
 H        -0.257983        -0.812640        -0.928073
 H         4.138044         1.006388        -0.762305
 H         1.771105         2.790964         1.099485
