19
Iteration:  1886
 C         4.634417        -0.393478         1.788357
 C         3.422460        -0.242996         0.775944
 C         2.244628        -1.215011         0.761345
 C         1.349538        -0.097771         0.121964
 C        -0.064671         0.060307        -0.111476
 O         2.096973         0.117326        -1.253028
 C         3.216975         0.665374        -0.514503
 C         2.514981         0.939494         0.736073
 O         2.239369         1.972353         1.628792
 H         5.263544        -1.354900         1.799808
 H         5.353822         0.361944         1.654886
 H         4.164062        -0.243024         2.787056
 H         2.312898        -2.153599         0.275089
 H         1.829019        -1.429508         1.711200
 H        -0.518519        -0.150729         0.927924
 H        -0.238632         1.012069        -0.626343
 H        -0.557401        -0.610746        -0.884280
 H         4.155161         1.196263        -0.886071
 H         1.892587         2.603505         1.025518
