19
Iteration:  2293charge 0 multiplicity 1
 C         4.678910        -0.461664         1.763845
 C         3.427952        -0.255525         0.829402
 C         2.178696        -1.167716         0.734653
 C         1.390673        -0.097989         0.097205
 C        -0.043270         0.038240        -0.142877
 O         2.100653         0.112904        -1.213628
 C         3.212253         0.611148        -0.377346
 C         2.433502         0.951335         0.793550
 O         2.245090         2.068199         1.523803
 H         5.366863        -1.255810         1.257283
 H         5.353426         0.522769         1.713632
 H         4.470184        -0.670898         2.845910
 H         2.338611        -2.151097         0.085388
 H         1.924378        -1.393322         1.857851
 H        -0.613308         0.062477         0.742582
 H        -0.073449         1.002958        -0.654135
 H        -0.420130        -0.852795        -0.693544
 H         3.878386         1.080915        -1.016495
 H         1.754353         2.603747         1.010502
