19
Iteration:   426charge 0 multiplicity 1
 C         4.565943        -0.299733         1.708553
 C         3.271337        -0.217573         0.977707
 C         2.169197        -1.328127         0.692257
 C         1.388191        -0.115585         0.059725
 C        -0.065061         0.069852        -0.129335
 O         2.228785         0.103052        -1.228682
 C         3.161568         0.593830        -0.434320
 C         2.386956         0.913869         0.742832
 O         2.425531         2.057468         1.602527
 H         5.175930        -1.133169         1.258953
 H         5.115122         0.688977         1.760059
 H         4.358023        -0.477050         2.813198
 H         2.452001        -2.052495        -0.047538
 H         1.796316        -1.882271         1.569104
 H        -0.526588        -0.065603         0.882497
 H        -0.364003         1.068805        -0.486437
 H        -0.438266        -0.814417        -0.696644
 H         4.027973         1.084584        -0.810502
 H         2.258107         2.873737         0.860984
