19
Iteration:  1628
 C         4.624236        -0.398053         1.679468
 C         3.350011        -0.284142         0.884370
 C         2.128904        -1.214205         0.779059
 C         1.362958         0.017431         0.075171
 C        -0.079886        -0.119357        -0.164486
 O         2.170403         0.233282        -1.246978
 C         3.229996         0.596876        -0.453244
 C         2.441598         0.969904         0.766099
 O         2.332371         2.007060         1.648927
 H         5.238040        -1.290794         1.340312
 H         5.305587         0.503929         1.397023
 H         4.375372        -0.334186         2.709734
 H         2.169380        -2.085598         0.193069
 H         1.761489        -1.415080         1.831715
 H        -0.516319        -0.416066         0.821785
 H        -0.460473         0.760101        -0.695792
 H        -0.176338        -0.960149        -0.886413
 H         4.132360         1.017163        -0.793577
 H         2.289840         2.817641         1.347244
