19
Iteration:  3946
 C         4.580457        -0.298492         1.696432
 C         3.374713        -0.295871         0.949652
 C         2.208612        -1.291899         0.713381
 C         1.354240        -0.096290         0.108414
 C        -0.181148        -0.019457        -0.033111
 O         2.277774         0.155689        -1.251322
 C         3.247972         0.654864        -0.477150
 C         2.492199         0.921210         0.742275
 O         2.233154         2.046792         1.521543
 H         5.107573        -1.317855         1.285133
 H         5.293394         0.440105         1.422805
 H         4.407685        -0.327051         2.893063
 H         2.347531        -2.193839         0.213671
 H         1.690453        -1.719570         1.633723
 H        -0.516930         0.170727         1.042566
 H        -0.525773         0.946051        -0.440758
 H        -0.641172        -0.899490        -0.485284
 H         4.289526         1.024061        -0.744143
 H         2.308110         3.007947         0.945009
