19
Iteration:  4767
 C         4.653547        -0.373618         1.650356
 C         3.398335        -0.282871         0.834974
 C         2.216734        -1.247627         0.702712
 C         1.406964        -0.123679         0.050236
 C        -0.103894        -0.060444        -0.095985
 O         2.153733         0.163387        -1.233540
 C         3.226625         0.627865        -0.429218
 C         2.460307         0.937842         0.842340
 O         2.247060         2.121166         1.635417
 H         5.416410        -1.057688         1.322764
 H         5.166589         0.612150         1.798316
 H         4.168816        -0.494423         2.597721
 H         2.463614        -2.162432         0.170210
 H         1.761262        -1.568291         1.709511
 H        -0.457476         0.447227         0.861152
 H        -0.234583         0.697898        -0.846536
 H        -0.622957        -0.986437        -0.395546
 H         4.173910         0.875264        -0.841849
 H         1.509387         2.616116         1.021802
