19
Iteration:  2542charge 0 multiplicity 1
 C         4.662417        -0.382224         1.593234
 C         3.396737        -0.278908         0.935116
 C         2.127004        -1.169789         0.793850
 C         1.383860        -0.076420         0.095720
 C        -0.072029         0.068177        -0.073983
 O         2.252656         0.129169        -1.191056
 C         3.277777         0.580253        -0.380474
 C         2.431689         0.900052         0.770373
 O         2.160175         2.054063         1.466844
 H         5.340058        -1.135013         1.061510
 H         5.257483         0.469197         1.816013
 H         4.736141        -1.045489         2.571418
 H         2.192789        -2.125126         0.301555
 H         1.657249        -1.432373         1.757424
 H        -0.469664         0.177200         0.970211
 H        -0.461816         0.843709        -0.836578
 H        -0.484667        -0.968197        -0.530644
 H         4.252228         1.056354        -0.713241
 H         1.743752         2.797076         0.875266
