19
Iteration:  1287
 C         4.624936        -0.436134         1.743383
 C         3.443580        -0.299777         0.808156
 C         2.181218        -1.268420         0.792184
 C         1.425592        -0.049424         0.018821
 C        -0.100736         0.040005        -0.144709
 O         2.124201         0.175495        -1.237158
 C         3.204947         0.710207        -0.441276
 C         2.517220         0.930145         0.762227
 O         2.257616         1.994426         1.645438
 H         5.085077        -1.471959         1.727850
 H         5.371194         0.358175         1.515927
 H         4.297621        -0.291559         2.751700
 H         2.387066        -2.050058         0.036123
 H         1.857803        -1.646730         1.849536
 H        -0.767805         0.091136         0.746773
 H        -0.358793         1.020626        -0.710169
 H        -0.400949        -0.746698        -0.910838
 H         4.110748         1.108637        -0.954637
 H         1.609762         2.650320         1.441816
