19
Iteration:   717
 C         4.508150        -0.519413         1.768897
 C         3.411169        -0.242958         0.868968
 C         2.178243        -1.252556         0.783504
 C         1.457207        -0.019669         0.024801
 C        -0.002884        -0.054896         0.005768
 O         2.120866         0.185236        -1.256645
 C         3.286196         0.756239        -0.522191
 C         2.532365         0.922725         0.747465
 O         2.212077         2.056674         1.517453
 H         5.125633        -1.362521         1.444114
 H         5.080844         0.362493         1.950836
 H         3.937655        -0.803986         2.662281
 H         2.065741        -2.134439         0.230520
 H         1.769014        -1.406671         1.812586
 H        -0.250669        -0.215180         1.071759
 H        -0.325104         0.872185        -0.476770
 H        -0.442910        -0.859420        -0.590856
 H         4.275773         1.116974        -0.854942
 H         1.853462         2.752203         0.935927
