19
Iteration:  4605
 C         4.658582        -0.447722         1.639911
 C         3.392175        -0.239086         0.906249
 C         2.297211        -1.245783         0.715053
 C         1.445701        -0.050927         0.065521
 C        -0.040082        -0.031273        -0.047759
 O         2.156902         0.154733        -1.273190
 C         3.204887         0.568158        -0.433024
 C         2.396640         0.954114         0.860554
 O         2.104222         2.145090         1.580885
 H         5.320792        -1.164865         1.025276
 H         5.314613         0.412448         1.774021
 H         4.425499        -0.673210         2.743796
 H         2.231788        -2.225883         0.211884
 H         1.676796        -1.452675         1.649276
 H        -0.639575         0.070755         0.924921
 H        -0.478551         0.683743        -0.735331
 H        -0.275449        -1.011647        -0.558765
 H         4.149596         0.943713        -0.931392
 H         2.686640         2.796974         0.988485
