19
Iteration:   587charge 0 multiplicity 1
 C         4.486141        -0.499636         1.715213
 C         3.361331        -0.223573         0.872326
 C         2.242948        -1.160932         0.685731
 C         1.428729        -0.082108         0.062175
 C         0.022372         0.020718         0.058537
 O         2.188186         0.047485        -1.318653
 C         3.302770         0.661554        -0.400438
 C         2.367995         0.958449         0.718444
 O         2.206564         2.074218         1.539925
 H         5.232082        -1.192748         1.270974
 H         5.011850         0.493114         2.124503
 H         4.152327        -0.961724         2.655653
 H         2.387893        -2.143596         0.226435
 H         1.655833        -1.248438         1.704122
 H        -0.421465        -0.082908         1.071375
 H        -0.263075         1.056969        -0.193799
 H        -0.334754        -0.727751        -0.686281
 H         4.113450         1.256469        -0.848188
 H         2.458843         2.767455         1.073860
