19
Iteration:   813
 C         4.733755        -0.378321         1.619868
 C         3.366911        -0.276587         0.943268
 C         2.114972        -1.171884         0.921829
 C         1.403690         0.002992         0.094561
 C        -0.091545         0.048305        -0.274553
 O         2.195477         0.055724        -1.253611
 C         3.223568         0.653384        -0.500239
 C         2.414481         0.982686         0.727898
 O         2.210660         1.908655         1.728142
 H         5.378456        -1.236042         1.201223
 H         5.205817         0.472559         1.309194
 H         4.635679        -0.469371         2.734954
 H         2.016875        -2.190634         0.351366
 H         1.766301        -1.330628         1.938464
 H        -0.706112        -0.072999         0.607503
 H        -0.229807         0.988483        -0.846548
 H        -0.387283        -0.669771        -1.017196
 H         3.893720         1.229699        -1.160139
 H         2.792163         2.775213         1.396960
