19
Iteration:  2539charge 0 multiplicity 1
 C         4.671650        -0.382257         1.594501
 C         3.368492        -0.272584         0.935160
 C         2.139186        -1.165043         0.787808
 C         1.398150        -0.050646         0.076561
 C        -0.078828         0.071673        -0.077381
 O         2.257423         0.098632        -1.202276
 C         3.274387         0.571241        -0.359075
 C         2.408544         0.912456         0.796426
 O         2.154044         2.052302         1.474060
 H         5.336318        -1.056126         0.998344
 H         5.273361         0.499053         1.721014
 H         4.728221        -1.074502         2.484725
 H         2.241198        -2.184814         0.253886
 H         1.736905        -1.369147         1.813838
 H        -0.472495         0.204295         0.964639
 H        -0.471845         0.760105        -0.807948
 H        -0.436667        -0.828711        -0.519795
 H         4.222319         1.029553        -0.677577
 H         1.936207         2.649592         0.865085
