19
Iteration:  2018
 C         4.571963        -0.306160         1.627994
 C         3.313338        -0.191759         0.883624
 C         2.188252        -1.205865         0.847856
 C         1.384915        -0.066290         0.062045
 C        -0.112627         0.035108        -0.200820
 O         2.189579        -0.015366        -1.239495
 C         3.256450         0.604610        -0.466322
 C         2.417832         0.967989         0.760792
 O         2.390657         2.014278         1.699966
 H         5.055674        -1.281321         1.220510
 H         5.314513         0.490389         1.351373
 H         4.393113        -0.355311         2.728905
 H         2.303870        -2.061358         0.209949
 H         1.689278        -1.463636         1.786456
 H        -0.649362        -0.179917         0.798205
 H        -0.391109         1.011035        -0.644895
 H        -0.192475        -0.783911        -1.037563
 H         4.005502         1.169447        -0.953100
 H         1.809531         2.676310         1.487200
