19
Iteration:  4203
 C         4.676609        -0.415766         1.588986
 C         3.391366        -0.219804         0.863653
 C         2.173753        -1.228700         0.881469
 C         1.446548        -0.051996         0.047830
 C        -0.036287         0.083649        -0.149006
 O         2.179661         0.018190        -1.186500
 C         3.223777         0.616336        -0.403654
 C         2.454433         0.981005         0.729369
 O         2.105738         2.027892         1.592411
 H         5.405870        -1.011785         1.073141
 H         5.278366         0.541049         1.747102
 H         4.414390        -0.788193         2.539232
 H         2.243350        -2.286574         0.548885
 H         1.704084        -1.354731         1.823140
 H        -0.611595         0.139117         0.797066
 H        -0.275756         0.892628        -0.868486
 H        -0.216472        -0.936049        -0.641213
 H         3.919648         1.258173        -0.941161
 H         2.461824         2.888115         1.217317
