19
Iteration:   733charge 0 multiplicity 1
 C         4.535551        -0.539182         1.823627
 C         3.362672        -0.280138         0.848347
 C         2.248030        -1.209617         0.679508
 C         1.480141        -0.065270         0.016509
 C        -0.037957         0.014114         0.089409
 O         2.154677         0.237376        -1.307592
 C         3.297511         0.581679        -0.390077
 C         2.399633         0.957018         0.701220
 O         2.226777         2.105755         1.468775
 H         5.284325        -1.233768         1.379360
 H         5.190483         0.410301         2.133602
 H         4.253654        -0.926866         2.826277
 H         2.614625        -2.204287         0.227477
 H         1.764377        -1.382874         1.634184
 H        -0.459915        -0.130074         1.094159
 H        -0.541771         0.929785        -0.269290
 H        -0.403617        -0.858112        -0.498250
 H         4.049294         1.124130        -0.943870
 H         1.579204         2.546113         1.094883
