19
Iteration:  2992
 C         4.662256        -0.305330         1.676788
 C         3.390251        -0.267633         0.877956
 C         2.157894        -1.231863         0.748349
 C         1.443789        -0.096422        -0.006937
 C        -0.066640         0.041940        -0.132790
 O         2.156457         0.026891        -1.202120
 C         3.226322         0.584484        -0.387539
 C         2.355454         0.960226         0.811858
 O         2.295306         2.092225         1.601908
 H         5.188575        -1.219468         1.153903
 H         5.282194         0.540262         1.522944
 H         4.645522        -0.533309         2.833436
 H         2.296797        -2.181818         0.198190
 H         1.725485        -1.530549         1.728417
 H        -0.530238         0.187442         0.813906
 H        -0.232321         0.866203        -0.733199
 H        -0.484018        -0.829813        -0.623025
 H         3.970259         1.067491        -0.920133
 H         1.737642         2.761238         1.071755
