19
Iteration:  3744
 C         4.635859        -0.398253         1.662981
 C         3.362592        -0.252385         0.914549
 C         2.107428        -1.260254         0.810133
 C         1.410843        -0.035202         0.032005
 C        -0.058504        -0.046660        -0.039196
 O         2.192874         0.076399        -1.254393
 C         3.252906         0.651596        -0.518850
 C         2.541446         1.043154         0.684501
 O         2.256186         2.071024         1.648111
 H         5.155665        -1.305999         1.422784
 H         5.429800         0.527720         1.653560
 H         4.389386        -0.403733         2.714221
 H         2.155789        -2.233116         0.309821
 H         1.648801        -1.279773         1.751054
 H        -0.621164        -0.129312         0.872031
 H        -0.394197         0.747863        -0.699982
 H        -0.646861        -0.856129        -0.586382
 H         4.177557         0.811904        -1.087476
 H         1.356101         2.601165         1.288166
