19
Iteration:  1874charge 0 multiplicity 1
 C         4.655971        -0.299853         1.712258
 C         3.405682        -0.299143         0.865063
 C         2.124126        -1.251805         0.769152
 C         1.459866        -0.096239         0.045052
 C        -0.069282         0.022806        -0.145370
 O         2.111259         0.145849        -1.239691
 C         3.256322         0.575268        -0.495374
 C         2.455001         0.973686         0.726209
 O         2.268652         1.963557         1.670242
 H         5.105180        -1.325211         1.744201
 H         5.342008         0.450069         1.456643
 H         4.359604        -0.068320         2.797565
 H         2.212770        -2.143761         0.202351
 H         1.838235        -1.372976         1.755299
 H        -0.710753        -0.023570         0.791905
 H        -0.258113         1.084423        -0.350947
 H        -0.447942        -0.731209        -0.862959
 H         3.993676         1.154928        -1.097664
 H         1.895400         2.980520         1.440543
