19
Iteration:  4856charge 0 multiplicity 1
 C         4.691862        -0.369388         1.641830
 C         3.340186        -0.262394         0.987981
 C         2.236396        -1.204880         0.733622
 C         1.387753        -0.036311         0.083736
 C        -0.101368        -0.046097        -0.174162
 O         2.114616         0.142477        -1.218939
 C         3.253707         0.599039        -0.437795
 C         2.447992         0.858598         0.831518
 O         2.221655         2.078833         1.582653
 H         5.426571        -0.976810         1.015623
 H         5.239625         0.569179         1.437411
 H         4.715883        -0.469326         2.775659
 H         2.532471        -2.128179         0.253704
 H         1.784275        -1.380173         1.814337
 H        -0.623022        -0.508761         0.697663
 H        -0.441468         1.021580        -0.349801
 H        -0.466855        -0.726790        -0.982584
 H         4.121041         1.104010        -0.888915
 H         2.105531         2.750480         0.903804
