19
Iteration:  4669
 C         4.654261        -0.416127         1.687034
 C         3.329325        -0.165855         0.938684
 C         2.258321        -1.260263         0.700734
 C         1.468167        -0.120822         0.039156
 C        -0.063664        -0.026915        -0.098941
 O         2.146309         0.095419        -1.180447
 C         3.214192         0.637862        -0.448271
 C         2.368323         0.947122         0.745988
 O         2.277065         2.115537         1.584963
 H         5.174023        -1.290746         1.270332
 H         5.386556         0.362154         1.544751
 H         4.315998        -0.524150         2.705667
 H         2.490831        -2.137632         0.159063
 H         1.643334        -1.541603         1.589784
 H        -0.500799        -0.510716         0.830031
 H        -0.317945         1.017507        -0.142081
 H        -0.439613        -0.586084        -0.983621
 H         4.000832         1.119502        -1.093663
 H         1.587137         2.838850         1.368516
