19
Iteration:  1029
 C         4.611677        -0.415996         1.701195
 C         3.384611        -0.255522         0.834056
 C         2.158801        -1.135744         0.817417
 C         1.400221        -0.033819         0.034915
 C        -0.076569        -0.082469        -0.169861
 O         2.181474         0.173380        -1.254241
 C         3.210367         0.607760        -0.478722
 C         2.427578         0.990242         0.735471
 O         2.303702         1.953058         1.694836
 H         4.946601        -1.426589         1.595751
 H         5.405625         0.238471         1.416367
 H         4.405266        -0.236091         2.757337
 H         2.166630        -2.123974         0.249654
 H         1.739427        -1.219852         1.852587
 H        -0.547732        -0.147726         0.828947
 H        -0.276507         0.989044        -0.442491
 H        -0.524039        -0.787070        -0.895254
 H         4.113681         1.069626        -0.851906
 H         2.267866         2.786084         1.236526
