19
Iteration:  4672
 C         4.659942        -0.399964         1.695454
 C         3.298651        -0.173093         0.932966
 C         2.256551        -1.263899         0.690222
 C         1.446503        -0.110557         0.061146
 C        -0.060009        -0.027839        -0.106847
 O         2.150085         0.095024        -1.177789
 C         3.222610         0.655942        -0.473595
 C         2.374805         0.949129         0.751633
 O         2.281318         2.104390         1.584548
 H         5.206982        -1.279960         1.186877
 H         5.455715         0.328560         1.589045
 H         4.344980        -0.474864         2.797751
 H         2.524392        -2.226168         0.228115
 H         1.695061        -1.546903         1.623611
 H        -0.512748        -0.479442         0.821597
 H        -0.357067         1.052254        -0.150889
 H        -0.404670        -0.572243        -1.010810
 H         3.972559         1.036686        -1.054280
 H         1.643689         2.678645         1.341922
