19
Iteration:  1832charge 0 multiplicity 1
 C         4.682471        -0.272516         1.594443
 C         3.277165        -0.246329         0.904298
 C         2.085686        -1.262531         0.764332
 C         1.331774        -0.096593        -0.029608
 C        -0.110059        -0.040883        -0.202966
 O         2.252457         0.062101        -1.184116
 C         3.274889         0.591876        -0.402277
 C         2.369473         1.020434         0.769485
 O         2.391691         2.034147         1.769598
 H         5.229863        -1.196302         1.184311
 H         5.224075         0.582704         1.210904
 H         4.842096        -0.200170         2.673290
 H         2.172753        -2.158978         0.111593
 H         1.431836        -1.427806         1.658973
 H        -0.795483        -0.151552         0.720186
 H        -0.484528         0.954022        -0.554715
 H        -0.362932        -0.810390        -1.014962
 H         4.147695         1.062063        -0.937187
 H         2.214246         2.741057         1.310017
