19
Iteration:  2110charge 0 multiplicity 1
 C         4.603010        -0.495983         1.710626
 C         3.389846        -0.263812         0.884205
 C         2.280454        -1.214349         0.741980
 C         1.426734        -0.083619         0.087096
 C        -0.081691         0.057365        -0.068710
 O         2.154098         0.078840        -1.184713
 C         3.207525         0.658445        -0.385610
 C         2.391160         0.987492         0.720155
 O         2.270095         2.090374         1.498593
 H         5.199980        -1.261455         1.211092
 H         5.240205         0.472187         1.864160
 H         4.258983        -0.885005         2.692482
 H         2.457411        -2.055922         0.077577
 H         1.930550        -1.627168         1.685270
 H        -0.638998         0.136872         0.874890
 H        -0.345804         0.993403        -0.673063
 H        -0.480920        -0.891739        -0.594467
 H         4.036724         1.229472        -0.946133
 H         1.810888         2.696812         1.001911
