19
Iteration:  1827charge 0 multiplicity 1
 C         4.708524        -0.305711         1.603735
 C         3.298450        -0.226262         0.898712
 C         2.072326        -1.259989         0.727264
 C         1.358709        -0.106565         0.003100
 C        -0.106678        -0.034068        -0.247473
 O         2.190367         0.068556        -1.191400
 C         3.268179         0.606070        -0.423844
 C         2.358129         0.990570         0.806955
 O         2.392635         2.040127         1.760785
 H         5.191111        -1.163797         1.236909
 H         5.265912         0.649376         1.392139
 H         4.803003        -0.332154         2.751401
 H         2.333754        -2.229375         0.284147
 H         1.607950        -1.268363         1.712900
 H        -0.711430        -0.134740         0.612735
 H        -0.492567         0.961696        -0.484096
 H        -0.295007        -0.880428        -0.876452
 H         4.188193         0.962567        -0.820779
 H         2.148277         2.982999         1.157640
