19
Iteration:   325charge 0 multiplicity 1
 C         4.686363        -0.505911         1.514949
 C         3.415750        -0.283151         0.864669
 C         2.188082        -1.217452         0.785720
 C         1.378702        -0.007717         0.137834
 C        -0.125381         0.137025        -0.141477
 O         2.319939        -0.029128        -1.144476
 C         3.318471         0.576989        -0.273107
 C         2.413091         0.964596         0.795069
 O         1.996589         2.168749         1.431309
 H         5.258869        -1.366522         1.227984
 H         5.367012         0.425396         1.345355
 H         4.343226        -0.659587         2.540571
 H         2.253039        -1.915355         0.022342
 H         1.891162        -1.616916         1.789233
 H        -0.529660         0.271178         0.870178
 H        -0.259028         1.080423        -0.741450
 H        -0.668636        -0.627616        -0.731181
 H         4.139118         1.008271        -0.878375
 H         2.691312         2.453417         2.250887
