19
Iteration:  3250charge 0 multiplicity 1
 C         4.548906        -0.403685         1.651447
 C         3.307718        -0.194051         0.981017
 C         2.227909        -1.287446         0.689470
 C         1.432266        -0.137066         0.016035
 C        -0.080162        -0.045865        -0.079055
 O         2.173427         0.154797        -1.183549
 C         3.243383         0.539935        -0.398389
 C         2.419071         0.984466         0.806767
 O         2.355753         2.174907         1.509973
 H         5.183695        -1.286774         1.238709
 H         5.162206         0.625803         1.622376
 H         4.370952        -0.331727         2.718239
 H         2.568284        -2.165194         0.008418
 H         1.682558        -1.733051         1.571710
 H        -0.566639        -0.478350         0.785385
 H        -0.360973         0.990959        -0.166094
 H        -0.583280        -0.543392        -0.866467
 H         4.196408         0.899100        -0.925923
 H         1.554773         2.537682         1.275768
