19
Iteration:  1938charge 0 multiplicity 1
 C         4.639065        -0.443619         1.648308
 C         3.264893        -0.272277         0.985495
 C         2.177287        -1.245521         0.643583
 C         1.393690         0.002159        -0.018913
 C        -0.081842        -0.047784         0.056292
 O         2.253382         0.123857        -1.258705
 C         3.281678         0.585527        -0.408935
 C         2.475204         0.978613         0.799493
 O         2.197662         2.133956         1.528074
 H         5.307555        -1.122605         1.114468
 H         5.059340         0.495404         1.915632
 H         4.394160        -1.020221         2.659936
 H         2.362961        -2.222856         0.095006
 H         1.662611        -1.522336         1.564998
 H        -0.289392        -0.063404         1.138178
 H        -0.529404         0.864946        -0.454145
 H        -0.356867        -1.048426        -0.288969
 H         4.240919         1.100513        -0.812095
 H         1.990048         2.993950         0.781591
