19
Iteration:  4452
 C         4.671873        -0.414915         1.674641
 C         3.366887        -0.311213         0.909576
 C         2.153928        -1.224851         0.705081
 C         1.414916        -0.120876         0.103798
 C        -0.065581        -0.104588        -0.067156
 O         2.173878         0.173082        -1.240245
 C         3.234003         0.691971        -0.407117
 C         2.451125         0.901648         0.826181
 O         2.235210         2.193452         1.497324
 H         5.212714        -1.382938         1.457060
 H         5.260527         0.413954         1.621851
 H         4.411715        -0.611084         2.755603
 H         2.134387        -2.015332        -0.040012
 H         1.847903        -1.412077         1.722753
 H        -0.558047        -0.455346         0.830719
 H        -0.358513         0.868694        -0.283633
 H        -0.374746        -0.846660        -0.782856
 H         4.215760         1.149330        -0.748806
 H         1.796553         2.687960         0.904142
