19
Iteration:  4310charge 0 multiplicity 1
 C         4.517390        -0.359537         1.762701
 C         3.389166        -0.223850         0.842430
 C         2.250065        -1.201739         0.716175
 C         1.414920        -0.006356         0.103401
 C        -0.066842        -0.090343        -0.038802
 O         2.146884         0.051107        -1.276606
 C         3.235923         0.663011        -0.496788
 C         2.425275         0.988977         0.701528
 O         2.317316         2.006959         1.610231
 H         5.113435        -1.394749         1.736850
 H         5.168060         0.452541         1.751148
 H         4.077486        -0.340358         2.852479
 H         2.326672        -2.104541         0.050164
 H         1.704580        -1.302968         1.657558
 H        -0.541324        -0.363433         0.880858
 H        -0.403210         0.895528        -0.229414
 H        -0.482126        -0.832570        -0.696839
 H         4.107215         1.110548        -0.928580
 H         2.372584         2.966719         0.986925
