19
Iteration:  4267
 C         4.604798        -0.392389         1.649538
 C         3.345910        -0.256606         0.900939
 C         2.202043        -1.183320         0.753173
 C         1.415714        -0.110826         0.052979
 C        -0.119085        -0.062964        -0.070556
 O         2.190579         0.139640        -1.187488
 C         3.204367         0.614874        -0.380086
 C         2.431570         0.979789         0.803715
 O         2.328625         2.089246         1.481058
 H         5.253485        -1.328169         1.500753
 H         5.190851         0.431146         1.501835
 H         4.299886        -0.458821         2.735035
 H         2.449234        -2.100083         0.122250
 H         1.808876        -1.496171         1.709576
 H        -0.770163        -0.449258         0.687418
 H        -0.353066         0.923309        -0.443519
 H        -0.216256        -0.770273        -0.900265
 H         4.156235         1.020644        -0.717596
 H         1.711378         2.766927         1.082779
