19
Iteration:  4862
 C         4.746208        -0.335358         1.644171
 C         3.361381        -0.304926         0.984063
 C         2.236785        -1.268658         0.799280
 C         1.399362        -0.068270         0.034388
 C        -0.139955        -0.017979        -0.187140
 O         2.071850         0.159314        -1.213159
 C         3.272541         0.600892        -0.425772
 C         2.429234         0.924980         0.807607
 O         2.239347         2.070866         1.587672
 H         5.355224        -1.033635         1.113322
 H         5.310901         0.636974         1.579883
 H         4.640012        -0.434899         2.703910
 H         2.417197        -2.216731         0.229541
 H         1.856233        -1.507936         1.743618
 H        -0.674620        -0.417791         0.674407
 H        -0.499933         0.958091        -0.394068
 H        -0.300755        -0.606342        -1.089077
 H         4.088731         1.152979        -0.847498
 H         2.014882         2.677671         0.912189
