19
Iteration:  1710charge 0 multiplicity 1
 C         4.699145        -0.351193         1.713430
 C         3.450931        -0.326674         0.824346
 C         2.205027        -1.339857         0.736342
 C         1.400034        -0.069406         0.082092
 C        -0.049476         0.116317        -0.081277
 O         2.128400         0.145121        -1.251708
 C         3.228155         0.645757        -0.441597
 C         2.426376         0.907354         0.777240
 O         2.153110         2.025965         1.605281
 H         5.274071        -1.261481         1.450829
 H         5.311601         0.493497         1.689586
 H         4.471696        -0.481482         2.827421
 H         2.446637        -2.209832         0.011386
 H         1.730087        -1.666750         1.674486
 H        -0.701908         0.250740         0.809436
 H        -0.212219         1.140562        -0.550257
 H        -0.467338        -0.674381        -0.755811
 H         4.152599         1.126819        -0.758854
 H         2.022810         2.813643         1.108790
