19
Iteration:  2327charge 0 multiplicity 1
 C         4.629115        -0.379196         1.548953
 C         3.266486        -0.254877         0.973102
 C         2.133931        -1.259706         0.821777
 C         1.437626        -0.066491         0.071476
 C        -0.072612         0.034743        -0.146593
 O         2.220924         0.106437        -1.217897
 C         3.268261         0.565835        -0.354303
 C         2.415139         0.993698         0.797816
 O         2.262944         2.051106         1.561714
 H         5.333703        -0.869541         0.794260
 H         5.129687         0.701383         1.650628
 H         4.830445        -0.884468         2.479102
 H         2.470860        -2.180829         0.200572
 H         1.803243        -1.647266         1.846362
 H        -0.635276         0.321273         0.727419
 H        -0.337852         0.785772        -0.915295
 H        -0.522118        -0.845302        -0.627563
 H         4.193785         0.944907        -0.759436
 H         1.912700         2.804212         1.054528
