19
Iteration:  2421charge 0 multiplicity 1
 C         4.550945        -0.353449         1.731006
 C         3.363419        -0.190288         0.912111
 C         2.198823        -1.237130         0.632712
 C         1.354537        -0.127016         0.009897
 C        -0.139873        -0.025524         0.021175
 O         2.219755         0.051314        -1.228925
 C         3.283919         0.653572        -0.417909
 C         2.401618         0.951224         0.747123
 O         2.368366         2.113603         1.528644
 H         4.999851        -1.374988         1.785668
 H         5.397955         0.198657         1.566679
 H         4.435676        -0.323268         2.873788
 H         2.365577        -2.030711        -0.018875
 H         1.734300        -1.704195         1.473041
 H        -0.522552        -0.350919         1.030581
 H        -0.493789         1.017743        -0.225131
 H        -0.536307        -0.529740        -0.932135
 H         4.201667         1.039245        -0.732863
 H         1.711273         2.625816         1.236791
