19
Iteration:  3322
 C         4.693768        -0.334320         1.738388
 C         3.398357        -0.287001         0.878957
 C         2.151466        -1.199121         0.776457
 C         1.369713        -0.107478         0.051501
 C        -0.071063        -0.010824        -0.130934
 O         2.125639         0.090495        -1.271539
 C         3.198403         0.592798        -0.460489
 C         2.467114         0.954581         0.764248
 O         2.255542         2.089802         1.625151
 H         5.461516        -0.951742         1.307073
 H         5.080985         0.599084         1.962146
 H         4.372557        -0.674430         2.739020
 H         2.210954        -2.097624         0.239379
 H         1.877897        -1.504274         1.774093
 H        -0.696763        -0.094702         0.794259
 H        -0.287661         0.873953        -0.852031
 H        -0.434125        -0.928984        -0.684174
 H         3.994773         1.099268        -1.068870
 H         2.682184         2.750720         1.205512
