19
Iteration:  1841charge 0 multiplicity 1
 C         4.624035        -0.233944         1.521879
 C         3.263015        -0.265852         0.956754
 C         2.076137        -1.214932         0.778938
 C         1.403346        -0.054954        -0.005088
 C        -0.156154        -0.034021        -0.194706
 O         2.282979         0.049744        -1.213782
 C         3.255610         0.580557        -0.353663
 C         2.424519         1.004830         0.752965
 O         2.381927         1.986835         1.747395
 H         5.210825        -1.157923         1.300816
 H         5.156028         0.505075         1.035657
 H         4.595340        -0.098060         2.667400
 H         2.136976        -2.036746         0.090978
 H         1.634512        -1.611547         1.632831
 H        -0.561581        -0.371790         0.806926
 H        -0.351327         0.956340        -0.659835
 H        -0.573259        -0.714141        -0.983974
 H         4.079069         1.042256        -0.877831
 H         2.212473         2.777048         1.465280
