19
Iteration:    68
 C         4.454796        -0.337637         1.787673
 C         3.368638        -0.304735         0.851719
 C         2.201664        -1.228032         0.764226
 C         1.431304        -0.031420         0.092872
 C        -0.093243        -0.000060         0.052152
 O         2.221109         0.126469        -1.244123
 C         3.231061         0.675239        -0.439205
 C         2.430390         0.856534         0.687187
 O         2.281285         2.020547         1.385576
 H         5.313291        -1.018893         1.481203
 H         4.923019         0.605167         1.671832
 H         4.212976        -0.497915         2.851342
 H         2.267489        -2.106507         0.223817
 H         1.815759        -1.316584         1.739766
 H        -0.517867        -0.195834         1.021924
 H        -0.431418         0.987127        -0.308225
 H        -0.404881        -0.815159        -0.606650
 H         3.971213         1.358431        -0.863139
 H         3.371105         2.346476         1.445214
