19
Iteration:   278
 C         4.605327        -0.314327         1.672340
 C         3.293233        -0.230072         0.901694
 C         2.135623        -1.209251         0.885621
 C         1.376927        -0.115728         0.036093
 C        -0.091263         0.011310        -0.178726
 O         2.186446         0.125905        -1.254001
 C         3.238549         0.589968        -0.461643
 C         2.462665         0.954660         0.734193
 O         2.388946         2.056574         1.558250
 H         5.131046        -1.178822         1.246675
 H         5.216672         0.516055         1.415979
 H         4.544012        -0.470874         2.740659
 H         2.309126        -2.259641         0.522122
 H         1.620225        -1.167243         1.878438
 H        -0.637312        -0.178130         0.771705
 H        -0.415379         0.922606        -0.663782
 H        -0.371713        -0.812232        -0.855354
 H         4.165095         0.884370        -0.929892
 H         1.842473         1.851994         2.413687
