19
Iteration:    66charge 0 multiplicity 1
 C         4.442419        -0.354482         1.791405
 C         3.372056        -0.298863         0.833448
 C         2.200654        -1.236232         0.772381
 C         1.427618        -0.048051         0.089690
 C        -0.080525        -0.007860         0.069207
 O         2.225606         0.138738        -1.245747
 C         3.245573         0.688393        -0.444830
 C         2.402693         0.852749         0.687900
 O         2.298492         2.025962         1.375648
 H         5.267000        -0.969328         1.528653
 H         4.909361         0.650209         1.701002
 H         4.172995        -0.508907         2.819734
 H         2.203362        -2.072677         0.254867
 H         1.858158        -1.252345         1.784690
 H        -0.549963        -0.203671         1.037326
 H        -0.395544         0.984741        -0.286565
 H        -0.362849        -0.812941        -0.620073
 H         3.951344         1.394451        -0.837505
 H         3.290601         2.264006         1.427632
