19
Iteration:  1426charge 0 multiplicity 1
 C         4.453499        -0.494678         1.680129
 C         3.312831        -0.187088         0.862803
 C         2.202435        -1.192893         0.711970
 C         1.458093        -0.048735         0.016918
 C        -0.103881        -0.124126        -0.033346
 O         2.216983         0.160319        -1.258111
 C         3.284181         0.698879        -0.447177
 C         2.459036         0.982418         0.730328
 O         2.350106         2.055301         1.674469
 H         4.795392        -1.640282         1.616793
 H         5.187102         0.292421         1.532085
 H         4.019614        -0.504012         2.774714
 H         2.386269        -2.043102         0.006308
 H         1.668363        -1.557165         1.555182
 H        -0.367225        -0.343219         0.968400
 H        -0.553784         0.840717        -0.323643
 H        -0.292870        -0.901685        -0.768337
 H         4.104072         1.257520        -0.875427
 H         2.051296         2.809797         1.084280
