19
Iteration:   510charge 0 multiplicity 1
 C         4.650044        -0.457172         1.652619
 C         3.360485        -0.230160         0.902125
 C         2.202435        -1.195558         0.818617
 C         1.335038        -0.124466        -0.038441
 C        -0.162763        -0.011055        -0.143929
 O         2.235755         0.060696        -1.282416
 C         3.268001         0.650809        -0.395618
 C         2.462595         1.016186         0.754996
 O         2.237632         2.094032         1.696816
 H         5.164907        -1.342389         1.376474
 H         5.473399         0.293824         1.483034
 H         4.453531        -0.640326         2.677840
 H         2.192519        -2.130262         0.236555
 H         1.813870        -1.326560         1.906976
 H        -0.627840         0.004199         0.826704
 H        -0.285220         0.905882        -0.758339
 H        -0.664246        -0.712715        -0.823160
 H         4.224626         1.028030        -0.684354
 H         2.148549         2.921443         1.017169
