19
Iteration:  3535
 C         4.639366        -0.436241         1.618289
 C         3.394496        -0.149483         0.846422
 C         2.105963        -1.074973         0.853101
 C         1.426290        -0.042940         0.058028
 C        -0.031634        -0.014670        -0.141728
 O         2.165168         0.005023        -1.257302
 C         3.276405         0.536628        -0.488459
 C         2.422813         1.012637         0.696024
 O         2.218593         2.021907         1.742966
 H         5.250467        -1.256726         1.193176
 H         5.271041         0.546525         1.610627
 H         4.267017        -0.621503         2.611888
 H         2.205269        -2.077467         0.366025
 H         1.894337        -1.228578         1.905890
 H        -0.443890        -0.130969         0.925213
 H        -0.252722         0.812799        -0.862171
 H        -0.259851        -1.127507        -0.604850
 H         4.186889         1.077180        -0.940466
 H         1.793719         2.862761         1.217540
