19
Iteration:  2235
 C         4.620659        -0.323146         1.800398
 C         3.335957        -0.270804         0.900771
 C         2.116630        -1.248291         0.702829
 C         1.374636         0.014200        -0.012051
 C        -0.075833        -0.037008        -0.017625
 O         2.181598         0.137891        -1.297751
 C         3.263875         0.590799        -0.429254
 C         2.445920         0.957291         0.743102
 O         2.338639         2.011623         1.575823
 H         5.007527        -1.388194         1.652304
 H         5.304194         0.415803         1.428374
 H         4.397637        -0.209363         2.954477
 H         2.352561        -2.230113         0.120655
 H         1.617268        -1.504371         1.690280
 H        -0.333633        -0.427442         0.982586
 H        -0.620268         0.863002        -0.204644
 H        -0.293258        -0.722630        -0.809884
 H         4.094392         1.081683        -1.031951
 H         2.029032         2.794894         0.998645
