19
Iteration:  2842charge 0 multiplicity 1
 C         4.592868        -0.332177         1.643342
 C         3.354877        -0.154943         0.834459
 C         2.094493        -1.075172         0.888493
 C         1.455959        -0.057331        -0.025519
 C        -0.081821        -0.065750        -0.143077
 O         2.204820        -0.054681        -1.259476
 C         3.266359         0.602564        -0.539162
 C         2.392430         1.058244         0.675850
 O         2.352140         1.951363         1.814611
 H         4.931973        -1.452821         1.509020
 H         5.469501         0.450160         1.370545
 H         4.478619        -0.330789         2.724827
 H         2.167821        -2.065684         0.389226
 H         1.564228        -0.996104         1.868702
 H        -0.756010        -0.576846         0.681879
 H        -0.563108         0.980344        -0.310293
 H        -0.248400        -0.620908        -1.135383
 H         4.081400         0.987406        -1.102556
 H         1.926095         2.827635         1.602671
