19
Iteration:    87
 C         4.684222        -0.313846         1.753696
 C         3.348602        -0.239141         0.943031
 C         2.141347        -1.274796         0.698863
 C         1.414637        -0.075178        -0.016174
 C        -0.082589         0.046144        -0.046777
 O         2.101792         0.050769        -1.238969
 C         3.297535         0.494736        -0.488251
 C         2.490801         0.967784         0.752804
 O         2.177317         2.121689         1.573275
 H         5.323171        -1.117272         1.546332
 H         5.305614         0.629429         1.693623
 H         4.374685        -0.409879         2.780637
 H         2.293271        -2.035297        -0.065902
 H         1.684069        -1.608671         1.644466
 H        -0.505780         0.001405         0.968696
 H        -0.357054         1.027083        -0.476930
 H        -0.485740        -0.794202        -0.633650
 H         4.204180         0.673104        -1.041942
 H         3.011879         2.864957         1.556980
