19
Iteration:  4516
 C         4.599764        -0.267644         1.648994
 C         3.391819        -0.220279         0.861737
 C         2.157986        -1.237292         0.806664
 C         1.427864        -0.050390         0.018744
 C        -0.069405        -0.009573        -0.135979
 O         2.140322         0.031057        -1.230745
 C         3.248924         0.644569        -0.463138
 C         2.442278         0.956612         0.709312
 O         2.306013         1.956345         1.686255
 H         5.181576        -1.183980         1.390748
 H         5.179568         0.665984         1.727399
 H         4.267636        -0.282546         2.706672
 H         2.128151        -2.067070         0.143574
 H         1.788161        -1.401967         1.858828
 H        -0.337987        -0.122902         0.925481
 H        -0.599575         0.914353        -0.424668
 H        -0.423636        -0.846245        -0.802410
 H         4.107352         1.356034        -0.860481
 H         2.038501         2.630495         1.180905
