19
Iteration:  4641charge 0 multiplicity 1
 C         4.636983        -0.470983         1.660028
 C         3.393044        -0.201868         0.891012
 C         2.205185        -1.267389         0.693923
 C         1.439403        -0.042793         0.091441
 C        -0.118939        -0.096729        -0.018361
 O         2.241850         0.144091        -1.224404
 C         3.253851         0.707847        -0.439705
 C         2.396783         0.924432         0.801638
 O         2.177135         2.136104         1.528731
 H         5.103028        -1.465084         1.334452
 H         5.304510         0.417866         1.593517
 H         4.373964        -0.803111         2.725965
 H         2.390548        -2.291600         0.156522
 H         1.751273        -1.288712         1.700324
 H        -0.472278        -0.482211         0.936527
 H        -0.566635         0.904219        -0.227427
 H        -0.409525        -0.854111        -0.740918
 H         4.108049         1.061313        -0.902041
 H         2.096576         2.955698         0.884806
