19
Iteration:   917
 C         4.518819        -0.583373         1.801387
 C         3.383378        -0.176582         0.832234
 C         2.258369        -1.137460         0.629388
 C         1.446093        -0.043553        -0.004765
 C        -0.056235         0.026841         0.031698
 O         2.187906         0.104513        -1.202515
 C         3.292256         0.609472        -0.541808
 C         2.393564         0.973050         0.801222
 O         2.187590         2.071941         1.567301
 H         5.299497        -1.093605         1.331155
 H         4.935167         0.470746         1.982528
 H         4.304072        -1.058359         2.707653
 H         2.412085        -2.019683        -0.031829
 H         1.867180        -1.580085         1.657712
 H        -0.340683        -0.117135         1.090724
 H        -0.614016         0.979305        -0.246240
 H        -0.450397        -0.903747        -0.515707
 H         4.257831         1.003208        -0.983651
 H         2.342385         2.739519         1.066179
