19
Iteration:  3034
 C         4.667123        -0.236767         1.603330
 C         3.321068        -0.221230         0.911529
 C         2.189938        -1.250901         0.838113
 C         1.315894        -0.079632         0.038597
 C        -0.111544         0.003334        -0.292384
 O         2.116892         0.084618        -1.150181
 C         3.293500         0.520782        -0.419468
 C         2.408072         0.927383         0.804080
 O         2.359381         2.011314         1.654780
 H         5.187767        -1.126461         1.496229
 H         5.232148         0.596867         1.242026
 H         4.721363        -0.037491         2.700201
 H         2.389828        -2.140708         0.268180
 H         1.739306        -1.478138         1.791258
 H        -0.652812        -0.221935         0.636599
 H        -0.436431         1.022678        -0.473587
 H        -0.399656        -0.667276        -1.192317
 H         4.119004         0.934917        -0.884370
 H         2.326501         2.880533         1.036207
