19
Iteration:  4768charge 0 multiplicity 1
 C         4.649717        -0.374129         1.649875
 C         3.405774        -0.294542         0.840020
 C         2.219120        -1.249537         0.700858
 C         1.407329        -0.123088         0.049237
 C        -0.101803        -0.061882        -0.088826
 O         2.154377         0.169987        -1.230046
 C         3.223533         0.625183        -0.439958
 C         2.463685         0.942189         0.841893
 O         2.243223         2.125024         1.633418
 H         5.415415        -1.094471         1.307017
 H         5.134466         0.584519         1.823711
 H         4.186540        -0.485801         2.630981
 H         2.472800        -2.151921         0.185155
 H         1.779507        -1.567289         1.725012
 H        -0.470939         0.470071         0.851520
 H        -0.255916         0.706144        -0.870680
 H        -0.604023        -1.001060        -0.423449
 H         4.141145         0.896670        -0.844252
 H         1.492537         2.614708         1.016412
