19
Iteration:  3154
 C         4.726423        -0.423671         1.644953
 C         3.363664        -0.309049         0.934886
 C         2.171628        -1.257802         0.753440
 C         1.428144        -0.077479         0.025289
 C        -0.082038         0.057611        -0.083053
 O         2.203844         0.110729        -1.238375
 C         3.248203         0.620646        -0.423709
 C         2.413181         0.926833         0.777646
 O         2.112945         2.098812         1.556312
 H         5.412352        -1.115702         1.259848
 H         5.150536         0.637318         1.743709
 H         4.616281        -0.581745         2.736110
 H         2.425473        -2.198390         0.290102
 H         1.629783        -1.400536         1.681968
 H        -0.447335         0.350290         0.944510
 H        -0.498957         0.778253        -0.780696
 H        -0.634884        -0.987511        -0.248032
 H         4.203949         1.093464        -0.851352
 H         2.695042         2.884175         1.071592
