19
Iteration:  3480
 C         4.613966        -0.287012         1.716776
 C         3.382540        -0.300254         0.902927
 C         2.132673        -1.256030         0.649412
 C         1.400548        -0.084775         0.029442
 C        -0.023813        -0.067016        -0.115376
 O         2.076016         0.176547        -1.168733
 C         3.226899         0.495301        -0.332726
 C         2.408280         0.892058         0.813899
 O         2.400631         2.157962         1.522237
 H         5.347976        -1.023831         1.309700
 H         4.989088         0.759391         1.816584
 H         4.499920        -0.481469         2.744587
 H         2.379479        -2.164645         0.014366
 H         1.530748        -1.490210         1.535402
 H        -0.583500        -0.331412         0.852142
 H        -0.449572         0.926536        -0.456717
 H        -0.141189        -0.859398        -0.983254
 H         4.037683         1.073705        -0.761024
 H         1.930737         2.792950         0.795482
