19
Iteration:  2442
 C         4.519840        -0.377414         1.704524
 C         3.298137        -0.231377         0.952337
 C         2.203661        -1.245841         0.755914
 C         1.423429        -0.002807        -0.043336
 C        -0.014157        -0.059770        -0.001193
 O         2.179581         0.113847        -1.268307
 C         3.238342         0.542453        -0.456336
 C         2.439296         0.989198         0.747321
 O         2.277095         2.061951         1.562625
 H         5.096543        -1.335189         1.581218
 H         5.237128         0.306310         1.336894
 H         4.419035        -0.258642         2.856967
 H         2.530426        -2.089411         0.188086
 H         1.804039        -1.578875         1.689867
 H        -0.289953        -0.449687         1.044186
 H        -0.434614         0.991211        -0.103497
 H        -0.428310        -0.590022        -0.939040
 H         4.025165         1.037607        -0.946832
 H         2.286726         3.040209         1.159951
