19
Iteration:   926
 C         4.568879        -0.557499         1.749564
 C         3.393420        -0.201487         0.872439
 C         2.214183        -1.173221         0.682659
 C         1.420953        -0.010155        -0.016312
 C        -0.064070         0.049596         0.001621
 O         2.194077         0.065144        -1.246707
 C         3.256302         0.623964        -0.422763
 C         2.474567         0.982419         0.681320
 O         2.168550         2.050286         1.583942
 H         5.401480        -1.046526         1.344750
 H         5.000546         0.382639         2.170996
 H         4.245574        -1.031469         2.640899
 H         2.408455        -2.002810        -0.015307
 H         1.795320        -1.539888         1.717222
 H        -0.136869        -0.138060         1.103311
 H        -0.622307         0.936277        -0.288758
 H        -0.555365        -0.835627        -0.458223
 H         3.969523         1.310581        -0.944710
 H         2.377515         2.814852         1.235528
