19
Iteration:  1419
 C         4.456488        -0.520895         1.733139
 C         3.349140        -0.164627         0.852950
 C         2.166155        -1.172720         0.672192
 C         1.414628        -0.040645         0.064653
 C        -0.042147        -0.114282        -0.038288
 O         2.218129         0.137534        -1.254644
 C         3.276255         0.702299        -0.507130
 C         2.416979         0.974045         0.782051
 O         2.358094         2.062152         1.651736
 H         4.881246        -1.471421         1.440853
 H         5.318809         0.126023         1.744516
 H         4.066033        -0.576375         2.705153
 H         2.454649        -1.918325        -0.057318
 H         1.847357        -1.739816         1.609737
 H        -0.476180        -0.418957         0.953537
 H        -0.457066         0.860465        -0.396186
 H        -0.421814        -0.890139        -0.756799
 H         4.089888         1.260090        -0.923669
 H         1.892270         2.882080         1.104218
