19
Iteration:  2171charge 0 multiplicity 1
 C         4.629090        -0.344242         1.578673
 C         3.296437        -0.181969         0.942672
 C         2.109646        -1.170474         0.799405
 C         1.391514        -0.110271         0.001968
 C        -0.117469         0.019935        -0.154008
 O         2.264215        -0.000187        -1.159947
 C         3.198447         0.617925        -0.440426
 C         2.479256         0.981877         0.747088
 O         2.302415         2.028101         1.642440
 H         5.081600        -1.172234         0.934532
 H         5.257448         0.519750         1.785828
 H         4.664205        -0.937339         2.504364
 H         2.258202        -2.105975         0.120805
 H         1.815009        -1.279530         1.898329
 H        -0.734189        -0.005833         0.753590
 H        -0.242243         0.874353        -0.791195
 H        -0.506962        -0.882468        -0.679437
 H         4.147556         1.055318        -0.802342
 H         2.209518         2.991436         1.347261
