19
Iteration:  3477
 C         4.622782        -0.277648         1.714335
 C         3.374448        -0.308856         0.910177
 C         2.140061        -1.271538         0.635407
 C         1.368309        -0.084507         0.003776
 C        -0.035922        -0.064547        -0.104975
 O         2.077468         0.182130        -1.158789
 C         3.266338         0.494326        -0.336554
 C         2.413681         0.904921         0.837728
 O         2.385936         2.160521         1.496370
 H         5.494940        -0.996922         1.398816
 H         4.993461         0.701515         1.699091
 H         4.452634        -0.542355         2.782896
 H         2.327143        -2.108818         0.050057
 H         1.612973        -1.514334         1.529933
 H        -0.621707        -0.333261         0.819956
 H        -0.567551         0.901357        -0.434860
 H        -0.157363        -0.813166        -0.915879
 H         4.077678         1.041016        -0.683726
 H         2.036809         2.738794         0.926882
