19
Iteration:   742charge 0 multiplicity 1
 C         4.570191        -0.532109         1.819165
 C         3.395505        -0.239869         0.961354
 C         2.271001        -1.215053         0.598371
 C         1.393843        -0.046765         0.006390
 C        -0.081195         0.016350         0.077477
 O         2.210407         0.200386        -1.260669
 C         3.276762         0.525749        -0.456281
 C         2.413145         0.921518         0.733248
 O         2.218718         2.138086         1.457298
 H         5.283569        -1.157519         1.286178
 H         5.066232         0.557454         1.950065
 H         4.245846        -0.990357         2.764882
 H         2.419505        -2.066252        -0.038406
 H         1.763440        -1.541223         1.543401
 H        -0.191088        -0.132730         1.184838
 H        -0.363834         0.987394        -0.292669
 H        -0.686695        -0.735378        -0.458718
 H         4.078227         1.165805        -0.718607
 H         1.510815         2.604088         1.238352
