19
Iteration:  4678
 C         4.648909        -0.362284         1.705165
 C         3.301920        -0.217088         0.914373
 C         2.240335        -1.273790         0.712315
 C         1.370480        -0.089443         0.080459
 C        -0.048467        -0.021233        -0.111364
 O         2.148593         0.088077        -1.201938
 C         3.210469         0.686015        -0.491613
 C         2.411123         0.994688         0.776283
 O         2.305839         2.040508         1.591944
 H         5.053459        -1.229426         1.273293
 H         5.438448         0.446709         1.677097
 H         4.631146        -0.499741         2.757224
 H         2.533766        -2.223376         0.232294
 H         1.936030        -1.509611         1.740302
 H        -0.621346        -0.401766         0.738072
 H        -0.433403         0.975002        -0.222508
 H        -0.302000        -0.530404        -1.043375
 H         4.229691         1.029459        -1.018389
 H         1.503531         2.545613         1.092074
