19
Iteration:   843charge 0 multiplicity 1
 C         4.588295        -0.381893         1.564072
 C         3.353878        -0.302034         0.908161
 C         2.190165        -1.220669         0.784837
 C         1.395937         0.000927         0.017613
 C        -0.065215        -0.019125        -0.242371
 O         2.187149         0.082909        -1.178977
 C         3.271922         0.572837        -0.437956
 C         2.367730         1.046056         0.775797
 O         2.293420         2.033777         1.772989
 H         5.009490        -1.431331         1.393414
 H         5.196331         0.509880         1.140172
 H         4.482708        -0.177552         2.691186
 H         2.210915        -2.203513         0.295503
 H         1.835310        -1.349057         1.775013
 H        -0.629335        -0.044150         0.642888
 H        -0.340382         0.991832        -0.652177
 H        -0.259917        -0.861687        -0.924504
 H         4.110686         0.827358        -1.136018
 H         2.320627         2.777004         1.329840
