19
Iteration:  2024
 C         4.596471        -0.303587         1.638691
 C         3.288471        -0.238036         0.873706
 C         2.125924        -1.198901         0.842016
 C         1.384070        -0.054756         0.011426
 C        -0.078642         0.002171        -0.169843
 O         2.180665         0.021540        -1.232359
 C         3.269826         0.601881        -0.444838
 C         2.433543         0.974919         0.716917
 O         2.389810         2.014962         1.727112
 H         5.142246        -1.175698         1.411292
 H         5.275863         0.464493         1.335323
 H         4.453359        -0.260438         2.742025
 H         2.283639        -2.184463         0.258099
 H         1.881045        -1.415455         1.906424
 H        -0.572093        -0.211715         0.733270
 H        -0.398570         0.945209        -0.612675
 H        -0.313022        -0.639708        -0.958327
 H         4.034200         1.157441        -1.090576
 H         1.712306         2.588135         1.239216
