19
Iteration:  4572
 C         4.665719        -0.335561         1.610514
 C         3.322171        -0.183927         0.898677
 C         2.245573        -1.220863         0.726485
 C         1.429904        -0.082535         0.086361
 C        -0.071955         0.050721        -0.110952
 O         2.214802         0.030862        -1.209455
 C         3.183862         0.650622        -0.372921
 C         2.354146         0.924912         0.759055
 O         2.260497         1.993998         1.616426
 H         5.405800        -1.055574         1.052625
 H         5.138419         0.632660         1.580143
 H         4.577213        -0.796947         2.635604
 H         2.165404        -2.119229         0.090032
 H         1.717611        -1.354731         1.725633
 H        -0.641563         0.311173         0.831348
 H        -0.206986         0.747816        -0.913365
 H        -0.451496        -0.967666        -0.402346
 H         4.047828         1.190744        -0.865708
 H         1.949607         2.629855         1.084601
