19
Iteration:  1675
 C         4.660562        -0.326260         1.600021
 C         3.326648        -0.203616         0.832043
 C         2.198594        -1.255848         0.836281
 C         1.398990        -0.060981         0.071685
 C        -0.062155         0.108261        -0.200469
 O         2.171772         0.003207        -1.281146
 C         3.235524         0.646746        -0.423108
 C         2.372425         1.001633         0.733386
 O         2.293620         1.956415         1.790347
 H         4.967492        -1.317270         1.459638
 H         5.502057         0.265003         1.220511
 H         4.435005        -0.204614         2.715614
 H         2.470854        -2.229215         0.296328
 H         1.666854        -1.496291         1.725284
 H        -0.617541        -0.099442         0.722276
 H        -0.158606         1.106039        -0.778527
 H        -0.263096        -0.708692        -0.964587
 H         4.118123         1.134846        -0.941487
 H         1.724037         2.533428         1.496960
