19
Iteration:   695
 C         4.617583        -0.469841         1.754447
 C         3.388753        -0.230703         0.868062
 C         2.210349        -1.187609         0.754492
 C         1.383296         0.000170         0.003239
 C        -0.080663        -0.009492        -0.088618
 O         2.138661         0.057106        -1.256805
 C         3.271899         0.647520        -0.432957
 C         2.400754         1.013289         0.732863
 O         2.266184         2.032719         1.638852
 H         5.125116        -1.407392         1.448066
 H         5.302785         0.356960         1.590703
 H         4.286479        -0.601293         2.793161
 H         2.335303        -2.065885         0.197115
 H         1.747196        -1.414017         1.738704
 H        -0.653648        -0.191785         0.827915
 H        -0.334422         0.796074        -0.778041
 H        -0.226352        -0.853335        -0.779267
 H         4.033897         1.131812        -1.079846
 H         2.458473         2.912822         1.323499
