19
Iteration:  2120
 C         4.659198        -0.504394         1.697071
 C         3.363020        -0.184781         0.892805
 C         2.139387        -1.239186         0.776299
 C         1.415200        -0.053454         0.065154
 C        -0.087705        -0.001477        -0.051420
 O         2.150438         0.135773        -1.149849
 C         3.297464         0.656229        -0.484868
 C         2.449338         0.937034         0.760752
 O         2.232218         2.059047         1.486427
 H         5.373643        -1.167802         1.166848
 H         5.264847         0.498533         1.932570
 H         4.410251        -0.948642         2.672701
 H         2.383218        -2.063867         0.182591
 H         1.813916        -1.515131         1.784611
 H        -0.649007         0.166349         0.887433
 H        -0.246721         0.874496        -0.785216
 H        -0.462752        -0.896177        -0.722007
 H         4.259896         1.099461        -0.925891
 H         1.756291         2.777600         1.044327
