19
Iteration:   758charge 0 multiplicity 1
 C         4.602818        -0.430848         1.743932
 C         3.304560        -0.276315         0.936193
 C         2.166612        -1.294676         0.606261
 C         1.463178        -0.065219         0.006441
 C        -0.082071         0.088544         0.064896
 O         2.204324         0.055982        -1.249865
 C         3.297837         0.706051        -0.344896
 C         2.454348         0.945921         0.791641
 O         2.244294         2.126076         1.483303
 H         5.317107        -1.105848         1.192700
 H         5.135906         0.398346         1.997045
 H         4.361170        -0.940804         2.698875
 H         2.573204        -1.964104        -0.283242
 H         1.737919        -1.914991         1.384416
 H        -0.424231        -0.082539         1.074630
 H        -0.504035         1.055246        -0.377921
 H        -0.592770        -0.691237        -0.512940
 H         4.181635         1.003478        -0.953178
 H         1.411648         2.513348         0.883129
