19
Iteration:  2812charge 0 multiplicity 1
 C         4.547711        -0.328016         1.710994
 C         3.373176        -0.273325         0.849852
 C         2.186733        -1.186980         0.831933
 C         1.457861        -0.035358         0.018733
 C        -0.094223        -0.016402        -0.121129
 O         2.113149         0.126239        -1.183136
 C         3.288827         0.595230        -0.469173
 C         2.449920         0.936535         0.695477
 O         2.337902         1.989314         1.619980
 H         5.179918        -1.148961         1.580470
 H         5.415088         0.358570         1.361387
 H         4.397640        -0.158766         2.759990
 H         2.270388        -2.138397         0.341717
 H         1.673137        -1.122840         1.804171
 H        -0.769991        -0.455537         0.652862
 H        -0.546128         0.921142        -0.581044
 H        -0.277326        -0.717173        -0.959855
 H         4.041207         0.962738        -1.050515
 H         1.742546         2.608607         1.394822
