19
Iteration:  3380
 C         4.717543        -0.397893         1.607518
 C         3.370804        -0.272381         0.969153
 C         2.123363        -1.213143         0.769962
 C         1.472176        -0.074611        -0.017588
 C         0.000707         0.070863        -0.118497
 O         2.182329         0.095772        -1.196733
 C         3.219916         0.569109        -0.403877
 C         2.408479         0.947358         0.765778
 O         2.185299         2.079770         1.587235
 H         5.320361        -1.318570         1.344813
 H         5.320617         0.471701         1.459052
 H         4.576679        -0.539611         2.643132
 H         2.275213        -2.263185         0.360432
 H         1.745236        -1.193389         1.799671
 H        -0.478848         0.365569         0.871085
 H        -0.403294         0.887231        -0.826500
 H        -0.352925        -0.929678        -0.508760
 H         4.005317         1.017280        -0.994938
 H         1.215183         2.403147         1.227162
