19
Iteration:  3050
 C         4.693523        -0.287083         1.691711
 C         3.370916        -0.278604         0.840818
 C         2.101569        -1.138596         0.844863
 C         1.451411        -0.046579         0.047930
 C        -0.066481        -0.067204        -0.176476
 O         2.137626         0.056274        -1.271802
 C         3.164417         0.559919        -0.442516
 C         2.448256         0.947768         0.750980
 O         2.310713         2.032986         1.683116
 H         5.276934        -1.314403         1.478027
 H         5.336511         0.602746         1.374767
 H         4.333804        -0.272689         2.757656
 H         2.118474        -2.158118         0.340481
 H         1.651082        -1.046634         1.879070
 H        -0.773358        -0.516597         0.536559
 H        -0.503586         0.932162        -0.409241
 H        -0.145787        -0.598761        -1.070505
 H         4.033882         1.044640        -1.020678
 H         2.394420         2.878962         1.359043
