19
Iteration:  1804
 C         4.601038        -0.444762         1.652892
 C         3.377543        -0.255397         0.857911
 C         2.248750        -1.200376         0.864669
 C         1.383333        -0.058879         0.080040
 C        -0.067092        -0.066596        -0.227750
 O         2.104751         0.168655        -1.181018
 C         3.184627         0.638525        -0.452262
 C         2.464051         0.967837         0.796133
 O         2.330414         2.035853         1.613852
 H         5.266610        -1.135403         1.173604
 H         5.067967         0.593200         1.878680
 H         4.446698        -0.843648         2.660339
 H         2.391011        -2.004028         0.112233
 H         1.722138        -1.474191         1.819300
 H        -0.821599        -0.042308         0.484459
 H        -0.269613         0.903264        -0.663165
 H        -0.173579        -0.908915        -0.882507
 H         3.927705         1.292636        -0.965470
 H         2.032875         2.643365         1.095446
