19
Iteration:  3665charge 0 multiplicity 1
 C         4.590265        -0.405898         1.621575
 C         3.358761        -0.198037         0.862078
 C         2.145627        -1.195341         0.845588
 C         1.408145        -0.031882         0.126886
 C        -0.058486        -0.047622        -0.070577
 O         2.204469         0.093260        -1.229305
 C         3.291367         0.606034        -0.434763
 C         2.380310         0.946945         0.698839
 O         2.237823         2.068157         1.533300
 H         5.201806        -1.074332         0.946840
 H         5.050631         0.622082         1.862362
 H         4.461476        -0.824896         2.609676
 H         2.241746        -2.142640         0.324429
 H         1.715239        -1.352655         1.836670
 H        -0.515959        -0.395114         0.905326
 H        -0.770564         0.757561        -0.210788
 H        -0.114666        -0.767214        -0.857655
 H         4.149027         1.074287        -0.903928
 H         2.967095         2.692607         1.315724
