19
Iteration:  4461charge 0 multiplicity 1
 C         4.641432        -0.461405         1.716240
 C         3.392504        -0.258620         0.930300
 C         2.193122        -1.291280         0.647069
 C         1.427167        -0.048188         0.091330
 C        -0.063030        -0.104161        -0.079533
 O         2.147207         0.151851        -1.154733
 C         3.223955         0.712579        -0.424496
 C         2.419228         0.929026         0.784242
 O         2.262986         2.164216         1.499722
 H         5.384848        -1.231418         1.479423
 H         5.165928         0.415936         1.449840
 H         4.418209        -0.369663         2.788253
 H         2.208222        -2.209991         0.160854
 H         1.687601        -1.594086         1.566727
 H        -0.473622        -0.433825         0.855479
 H        -0.496518         0.883252        -0.295765
 H        -0.445409        -0.765667        -0.889736
 H         4.101956         1.153562        -0.950276
 H         1.933393         2.625289         0.828131
