19
Iteration:   404charge 0 multiplicity 1
 C         4.494837        -0.446607         1.761460
 C         3.402011        -0.267287         0.808620
 C         2.210732        -1.248195         0.621256
 C         1.433619        -0.061096         0.008598
 C        -0.080532         0.028350         0.021075
 O         2.133857         0.048653        -1.230092
 C         3.350656         0.615023        -0.365180
 C         2.444574         0.948148         0.779583
 O         2.216886         2.149626         1.516389
 H         5.337114        -1.142094         1.469772
 H         4.890191         0.631329         1.917328
 H         4.126031        -0.538636         2.824851
 H         2.382846        -2.068608        -0.033145
 H         1.813138        -1.696978         1.548808
 H        -0.509508        -0.014014         1.048507
 H        -0.257304         1.078490        -0.276365
 H        -0.607804        -0.764226        -0.564072
 H         4.232186         1.051577        -0.776337
 H         2.764980         2.729198         1.119596
