19
Iteration:   535
 C         4.592391        -0.424803         1.678804
 C         3.310710        -0.299831         0.959835
 C         2.193585        -1.306739         0.685894
 C         1.434822        -0.011691         0.035805
 C         0.041574         0.045801        -0.062629
 O         2.148073         0.184985        -1.156083
 C         3.278962         0.605002        -0.345562
 C         2.379510         0.869651         0.808573
 O         2.252850         2.122193         1.454901
 H         5.137630        -1.284298         1.373399
 H         5.286533         0.379595         1.570128
 H         4.365665        -0.647103         2.708170
 H         2.335720        -1.947650        -0.222616
 H         1.722693        -1.835182         1.579518
 H        -0.339709         0.006612         0.991163
 H        -0.306513         0.882749        -0.644415
 H        -0.356987        -0.814188        -0.630776
 H         4.076049         1.232167        -0.793317
 H         1.744331         2.648468         0.655767
