19
Iteration:  4653charge 0 multiplicity 1
 C         4.619624        -0.480350         1.676289
 C         3.350553        -0.253810         0.838426
 C         2.245876        -1.164841         0.746051
 C         1.394004        -0.118266         0.008752
 C        -0.051163        -0.089613        -0.026515
 O         2.176499         0.084733        -1.301040
 C         3.242385         0.650616        -0.346483
 C         2.405636         1.019906         0.813651
 O         2.218246         2.154975         1.576210
 H         5.210360        -1.316769         1.228763
 H         5.388254         0.363405         1.654522
 H         4.391637        -0.506698         2.764049
 H         2.471467        -2.110548         0.055803
 H         1.999341        -1.599699         1.702317
 H        -0.454513        -0.423790         0.890569
 H        -0.424555         0.958836        -0.151374
 H        -0.448664        -0.624922        -0.874701
 H         4.075837         1.254423        -0.667212
 H         1.847920         2.670138         0.962015
