19
Iteration:  3174
 C         4.622139        -0.393482         1.585490
 C         3.289440        -0.209426         0.994258
 C         2.105657        -1.175159         0.814665
 C         1.492751        -0.063023         0.042773
 C         0.013746         0.005639        -0.079723
 O         2.245031        -0.006271        -1.214557
 C         3.187767         0.715520        -0.504109
 C         2.505871         0.973499         0.729726
 O         2.127798         1.988043         1.621007
 H         4.891562        -1.270803         0.988236
 H         5.282515         0.625264         1.459063
 H         4.617390        -0.696282         2.626540
 H         2.273034        -2.048314         0.116682
 H         1.630204        -1.389617         1.770955
 H        -0.505355         0.404162         0.789524
 H        -0.205290         0.765705        -0.814597
 H        -0.467954        -0.920145        -0.457401
 H         4.137294         0.966525        -1.009840
 H         2.626959         2.867407         1.526154
