19
Iteration:  2494
 C         4.652194        -0.396124         1.592230
 C         3.377930        -0.186193         0.941434
 C         2.224546        -1.239790         0.810863
 C         1.400495        -0.072642         0.097314
 C        -0.044848         0.059809        -0.175586
 O         2.143955         0.013143        -1.201207
 C         3.235692         0.608822        -0.424017
 C         2.383584         0.943863         0.810539
 O         2.171392         2.093465         1.550574
 H         5.310415        -1.060064         1.063900
 H         5.225030         0.548437         1.751816
 H         4.612926        -0.863381         2.555619
 H         2.337161        -2.238892         0.243013
 H         1.817606        -1.504569         1.807599
 H        -0.659642         0.186303         0.735950
 H        -0.139430         0.926233        -0.810493
 H        -0.342321        -0.716567        -0.791591
 H         4.118851         0.923250        -0.908119
 H         2.766543         2.740046         1.423205
