19
Iteration:  3745charge 0 multiplicity 1
 C         4.638521        -0.399001         1.670651
 C         3.358406        -0.249652         0.914184
 C         2.111007        -1.264168         0.813193
 C         1.415135        -0.024840         0.025318
 C        -0.061458        -0.044861        -0.035114
 O         2.190073         0.070408        -1.259125
 C         3.254734         0.654197        -0.526412
 C         2.539674         1.053635         0.684527
 O         2.253442         2.065476         1.651086
 H         5.156719        -1.304980         1.435916
 H         5.437949         0.503713         1.656488
 H         4.393959        -0.427431         2.734962
 H         2.152437        -2.218364         0.302438
 H         1.668847        -1.299963         1.759144
 H        -0.598599        -0.149036         0.858794
 H        -0.421527         0.741266        -0.694388
 H        -0.682290        -0.869435        -0.570177
 H         4.216635         0.800954        -1.107106
 H         1.373661         2.609226         1.286958
