19
Iteration:    81
 C         4.619431        -0.291276         1.767370
 C         3.348360        -0.282596         0.922222
 C         2.161098        -1.246898         0.713422
 C         1.402525        -0.051515         0.024561
 C        -0.097755         0.036088        -0.026650
 O         2.142341         0.065598        -1.242814
 C         3.263603         0.562174        -0.483859
 C         2.503858         0.946653         0.766002
 O         2.234520         2.071851         1.490644
 H         5.281151        -1.196798         1.494875
 H         5.167137         0.630866         1.747219
 H         4.311379        -0.443037         2.838712
 H         2.363228        -2.137414         0.013903
 H         1.679480        -1.598267         1.632217
 H        -0.443257        -0.066234         1.006241
 H        -0.518149         0.976989        -0.403329
 H        -0.524417        -0.785625        -0.619174
 H         4.184518         0.943067        -0.977659
 H         2.908919         2.665313         1.588686
