19
Iteration:  3043
 C         4.692705        -0.273924         1.632182
 C         3.375228        -0.261039         0.922887
 C         2.153372        -1.166097         0.831848
 C         1.401447        -0.053894         0.044427
 C        -0.098918        -0.018283        -0.253242
 O         2.114439         0.076736        -1.224236
 C         3.220642         0.498821        -0.435616
 C         2.396055         0.968327         0.788778
 O         2.333266         2.006995         1.683635
 H         5.279898        -1.101480         1.529730
 H         5.372272         0.598281         1.321594
 H         4.357989        -0.126141         2.617888
 H         2.163679        -2.164027         0.386502
 H         1.788855        -1.299902         1.830116
 H        -0.596964        -0.532372         0.601551
 H        -0.419455         1.050998        -0.482893
 H        -0.359997        -0.720953        -1.160110
 H         3.991235         1.019484        -0.934321
 H         2.429958         2.864057         1.062240
