19
Iteration:  2374charge 0 multiplicity 1
 C         4.590213        -0.388886         1.666445
 C         3.355427        -0.219103         0.914018
 C         2.217542        -1.155815         0.823904
 C         1.409320        -0.071346         0.130877
 C        -0.077942        -0.022265        -0.125427
 O         2.173317         0.139935        -1.256399
 C         3.264664         0.574148        -0.485159
 C         2.443775         0.976184         0.701342
 O         2.230623         1.990625         1.619233
 H         5.244807        -1.183631         1.348192
 H         5.296248         0.459221         1.722826
 H         4.423903        -0.687720         2.687876
 H         2.262065        -2.120041         0.342954
 H         1.732163        -1.293614         1.765276
 H        -0.683427         0.084513         0.860752
 H        -0.346339         0.881577        -0.720100
 H        -0.476749        -0.823752        -0.754500
 H         4.159848         0.875637        -1.123539
 H         2.345265         2.664258         1.046490
