19
Iteration:  3105charge 0 multiplicity 1
 C         4.622813        -0.474989         1.778830
 C         3.349524        -0.267335         0.943581
 C         2.212670        -1.282240         0.670949
 C         1.444507        -0.104355         0.033260
 C        -0.049784        -0.036679        -0.019896
 O         2.145868         0.077254        -1.262346
 C         3.212915         0.674788        -0.465930
 C         2.448429         0.980378         0.776590
 O         2.271822         2.220008         1.510037
 H         5.286838        -1.368983         1.349974
 H         5.159621         0.522223         2.076892
 H         4.466391        -0.778854         2.859665
 H         2.294600        -2.085892        -0.145911
 H         1.797754        -1.701392         1.643770
 H        -0.452002        -0.143154         0.983181
 H        -0.443044         0.962546        -0.355528
 H        -0.495578        -0.742188        -0.622786
 H         4.031735         1.164591        -1.022455
 H         1.639505         2.804567         1.148185
