19
Iteration:  2479
 C         4.708797        -0.408322         1.681340
 C         3.390861        -0.304852         0.814964
 C         2.201975        -1.163358         0.844926
 C         1.421631        -0.039486         0.086105
 C        -0.092148         0.048195        -0.190680
 O         2.136640         0.083840        -1.153222
 C         3.227435         0.573983        -0.403479
 C         2.468525         0.943895         0.744387
 O         2.148745         2.035656         1.531650
 H         5.330102        -1.215940         1.261576
 H         5.121403         0.647090         1.746227
 H         4.449019        -0.521041         2.742722
 H         2.329079        -2.078229         0.253263
 H         1.800304        -1.328105         1.869147
 H        -0.659714        -0.164130         0.666953
 H        -0.427962         1.010391        -0.585523
 H        -0.370007        -0.906194        -0.719893
 H         3.837736         1.398688        -0.891794
 H         2.951181         2.700312         1.163189
