19
Iteration:  4924charge 0 multiplicity 1
 C         4.645014        -0.276052         1.713236
 C         3.343586        -0.175846         0.849452
 C         2.179378        -1.150877         0.742160
 C         1.374741        -0.124839         0.033713
 C        -0.085621        -0.048964        -0.043241
 O         2.197604         0.107582        -1.269113
 C         3.302892         0.552903        -0.515377
 C         2.405439         0.976813         0.648883
 O         2.229233         1.954464         1.743415
 H         5.382159        -1.122918         1.284095
 H         5.262603         0.613255         1.615447
 H         4.490011        -0.539533         2.817528
 H         2.016268        -2.106815         0.148034
 H         1.923582        -1.192127         1.836715
 H        -0.606874        -0.202989         0.887535
 H        -0.215864         1.012718        -0.506351
 H        -0.661838        -0.910321        -0.545657
 H         4.224258         0.727974        -1.089014
 H         2.227734         2.947158         1.308046
