19
Iteration:   647charge 0 multiplicity 1
 C         4.700520        -0.239006         1.563704
 C         3.262861        -0.334405         0.959905
 C         2.041747        -1.263961         0.821177
 C         1.389274        -0.060062         0.130456
 C         0.019496         0.032287        -0.311752
 O         2.154346         0.101533        -1.241351
 C         3.209816         0.622004        -0.368289
 C         2.399459         0.906141         0.826274
 O         2.424613         2.032648         1.640422
 H         5.256619        -1.127240         1.295448
 H         5.210040         0.559522         1.247249
 H         4.556743        -0.334322         2.631242
 H         2.075589        -2.249947         0.230111
 H         1.530995        -1.403906         1.754307
 H        -0.459572        -0.133786         0.652615
 H        -0.211909         0.902665        -0.933541
 H        -0.307974        -0.849322        -0.862477
 H         4.115267         1.119803        -0.684490
 H         1.556671         2.672050         1.324491
