19
Iteration:  2897
 C         4.722475        -0.343312         1.682053
 C         3.361124        -0.348867         0.960406
 C         2.179688        -1.271082         0.720650
 C         1.453549        -0.130343         0.022557
 C        -0.065465         0.019774        -0.154311
 O         2.123732         0.157597        -1.147345
 C         3.180899         0.602435        -0.357414
 C         2.378476         0.912722         0.862786
 O         2.300147         2.136217         1.455055
 H         5.334145        -1.174941         1.219335
 H         5.023182         0.722123         1.667939
 H         4.529181        -0.604731         2.696190
 H         2.226892        -2.057543        -0.068090
 H         1.874010        -1.849606         1.633934
 H        -0.469880         0.014402         0.941621
 H        -0.311353         1.067773        -0.589825
 H        -0.523212        -0.771606        -0.801951
 H         3.955370         1.108279        -0.781820
 H         1.910626         2.808894         0.814436
