19
Iteration:  3257
 C         4.575336        -0.393827         1.702028
 C         3.287839        -0.223331         0.985947
 C         2.194870        -1.294099         0.675209
 C         1.411931        -0.146719        -0.044193
 C        -0.138225        -0.060250        -0.033918
 O         2.185986         0.112345        -1.208039
 C         3.276818         0.611499        -0.437625
 C         2.468530         1.002656         0.795694
 O         2.356691         2.205904         1.537606
 H         5.337031        -1.182773         1.418819
 H         5.112638         0.439758         1.582449
 H         4.386924        -0.583106         2.779054
 H         2.487559        -2.098844        -0.006870
 H         1.919609        -1.777691         1.621874
 H        -0.598600        -0.571426         0.863558
 H        -0.522482         1.047486        -0.162780
 H        -0.599216        -0.571511        -0.941089
 H         4.149306         0.899097        -0.956571
 H         1.583019         2.623542         1.301569
