19
Iteration:  1546charge 0 multiplicity 1
 C         4.603619        -0.441456         1.658907
 C         3.363076        -0.306538         0.869809
 C         2.168136        -1.153749         0.757573
 C         1.456801         0.012107         0.022145
 C        -0.016640         0.011691        -0.004112
 O         2.177191         0.195603        -1.285062
 C         3.362594         0.508888        -0.442844
 C         2.403370         0.929398         0.779079
 O         2.147847         2.040978         1.607321
 H         5.462099        -0.906092         1.092121
 H         4.693201         0.558981         1.992230
 H         4.542264        -1.109512         2.599052
 H         2.076304        -2.145765         0.159357
 H         1.730689        -1.351169         1.690817
 H        -0.449321        -0.062176         0.963784
 H        -0.450793         0.948878        -0.383699
 H        -0.183609        -0.816664        -0.662473
 H         4.274690         0.882665        -0.905294
 H         1.870790         2.754192         1.100924
