19
Iteration:  3254
 C         4.560725        -0.414177         1.663185
 C         3.303616        -0.197564         0.995101
 C         2.207157        -1.300038         0.675996
 C         1.427637        -0.145984        -0.021397
 C        -0.110251        -0.047863        -0.048823
 O         2.183098         0.137134        -1.190504
 C         3.262793         0.572066        -0.427231
 C         2.444281         0.996473         0.806125
 O         2.366940         2.188282         1.525868
 H         5.216283        -1.136282         1.367718
 H         5.134338         0.548796         1.615576
 H         4.360293        -0.421612         2.782166
 H         2.504160        -2.095618         0.062253
 H         1.839341        -1.778425         1.571161
 H        -0.602271        -0.546782         0.799376
 H        -0.436436         0.981970        -0.181765
 H        -0.653212        -0.570378        -0.926067
 H         4.139391         0.875412        -0.932098
 H         1.412346         2.647101         1.251863
