19
Iteration:  2348charge 0 multiplicity 1
 C         4.655502        -0.356528         1.549162
 C         3.325134        -0.260602         0.906352
 C         2.072632        -1.172401         0.753598
 C         1.437532        -0.045171        -0.052768
 C        -0.061184         0.007014        -0.111115
 O         2.256104        -0.060792        -1.217036
 C         3.264384         0.621111        -0.324104
 C         2.377257         1.023295         0.788191
 O         2.243547         2.074602         1.679718
 H         5.495859        -0.912658         0.959567
 H         5.369384         0.561357         1.718499
 H         4.599246        -0.803321         2.561714
 H         2.139557        -2.230199         0.206680
 H         1.507820        -1.279455         1.784131
 H        -0.415831         0.205861         0.853824
 H        -0.482714         0.808908        -0.730550
 H        -0.503135        -0.926417        -0.503053
 H         3.989808         1.067620        -0.949932
 H         2.308394         2.742749         1.080822
