19
Iteration:  1447
 C         4.621043        -0.370883         1.719257
 C         3.339517        -0.247478         0.861064
 C         2.051112        -1.195497         0.712535
 C         1.382945        -0.025471        -0.043393
 C        -0.069314        -0.118294        -0.094854
 O         2.212267         0.250667        -1.274883
 C         3.299270         0.594719        -0.439675
 C         2.381617         0.913736         0.783303
 O         2.326150         2.007970         1.690891
 H         5.013021        -1.478118         1.721608
 H         5.463226         0.216915         1.285035
 H         4.452583        -0.169060         2.856172
 H         2.280187        -2.199993         0.262121
 H         1.714576        -1.461246         1.658776
 H        -0.344090        -0.267365         0.925467
 H        -0.468327         0.836040        -0.442528
 H        -0.477048        -0.909544        -0.693307
 H         4.227555         0.934682        -0.878290
 H         2.306676         3.014255         1.159530
