19
Iteration:  3836
 C         4.613493        -0.324950         1.625084
 C         3.269674        -0.234642         0.949656
 C         2.220435        -1.285397         0.753602
 C         1.395940        -0.033333         0.046649
 C        -0.135431         0.020419        -0.093258
 O         2.219277         0.110034        -1.171263
 C         3.282257         0.540828        -0.417981
 C         2.403391         0.936734         0.768377
 O         2.324801         2.056354         1.551058
 H         5.260797        -1.045900         1.041748
 H         5.046911         0.639311         1.709686
 H         4.521513        -0.577189         2.733850
 H         2.447131        -2.015612         0.030484
 H         1.810203        -1.651527         1.717486
 H        -0.544864        -0.197975         0.893674
 H        -0.577487         0.889432        -0.593943
 H        -0.367376        -0.807148        -0.786294
 H         4.053573         1.025660        -0.924401
 H         1.908934         2.901634         1.011673
