19
Iteration:  3653charge 0 multiplicity 1
 C         4.602173        -0.426504         1.678608
 C         3.344799        -0.259229         0.862089
 C         2.135198        -1.106972         0.838726
 C         1.399800        -0.032404         0.072184
 C        -0.122759        -0.123841        -0.009622
 O         2.213992         0.123968        -1.252253
 C         3.274529         0.652819        -0.476883
 C         2.504850         0.990352         0.710554
 O         2.193950         2.008581         1.505571
 H         5.432516        -1.073107         1.209731
 H         5.157596         0.510251         1.818343
 H         4.387865        -0.911522         2.661377
 H         2.072713        -2.104896         0.406550
 H         1.842343        -1.105668         1.925255
 H        -0.538939        -0.574186         0.939204
 H        -0.316532         0.889452        -0.303774
 H        -0.498826        -0.753199        -0.721840
 H         4.175972         1.138115        -0.972890
 H         2.947041         2.794091         1.360937
