19
Iteration:  4600
 C         4.676030        -0.423224         1.651366
 C         3.345941        -0.231700         0.860621
 C         2.273977        -1.256026         0.753073
 C         1.453770        -0.097426         0.029119
 C        -0.082613        -0.008524        -0.049252
 O         2.187915         0.139746        -1.233838
 C         3.204061         0.593312        -0.409868
 C         2.422803         0.937445         0.821526
 O         2.114634         2.160577         1.603084
 H         5.302042        -1.108490         1.163124
 H         5.371197         0.458775         1.620081
 H         4.406204        -0.859453         2.574056
 H         2.284301        -2.153493         0.098496
 H         1.781391        -1.530751         1.652276
 H        -0.600065         0.052337         0.863016
 H        -0.359122         0.731083        -0.844668
 H        -0.342986        -0.991503        -0.449004
 H         4.025127         0.993975        -1.027755
 H         2.615097         2.702964         1.060360
