19
Iteration:  1929
 C         4.571512        -0.482985         1.701460
 C         3.330966        -0.258927         0.935165
 C         2.212565        -1.226983         0.671384
 C         1.451780        -0.076603        -0.013643
 C        -0.045139        -0.014958         0.085563
 O         2.244509         0.091649        -1.305838
 C         3.240344         0.656477        -0.420001
 C         2.395558         0.963161         0.799492
 O         2.216960         2.172600         1.552850
 H         5.298918        -1.112211         1.103468
 H         5.120486         0.407062         1.831551
 H         4.432556        -0.951339         2.739767
 H         2.431842        -1.991184        -0.054833
 H         1.745110        -1.621979         1.525026
 H        -0.380381        -0.017467         1.169518
 H        -0.567478         0.780893        -0.482859
 H        -0.575249        -0.846610        -0.441368
 H         4.259886         0.683455        -0.900991
 H         1.820071         2.997355         0.935564
