19
Iteration:   922
 C         4.538565        -0.577039         1.769246
 C         3.390081        -0.163536         0.850159
 C         2.230155        -1.154056         0.671757
 C         1.429423        -0.028124        -0.022382
 C        -0.064713         0.049552         0.004304
 O         2.190243         0.077612        -1.215160
 C         3.266640         0.611139        -0.472639
 C         2.453539         0.967494         0.721432
 O         2.168805         2.046372         1.588203
 H         5.505647        -1.084679         1.335353
 H         4.923054         0.397253         2.038536
 H         4.294480        -1.076531         2.791458
 H         2.399397        -1.992969        -0.014705
 H         1.883506        -1.539933         1.557866
 H        -0.145712        -0.154923         1.086542
 H        -0.667369         0.910876        -0.242010
 H        -0.488176        -0.829913        -0.432645
 H         4.043487         1.186719        -0.913019
 H         2.437162         2.995861         1.047540
