19
Iteration:  1139charge 0 multiplicity 1
 C         4.697793        -0.426731         1.547820
 C         3.307418        -0.285222         0.930947
 C         2.093136        -1.180519         0.847600
 C         1.415406        -0.088867         0.023733
 C        -0.036363         0.075346        -0.149558
 O         2.236863         0.160878        -1.212857
 C         3.251730         0.586829        -0.455338
 C         2.495952         0.946297         0.775222
 O         2.141603         2.002805         1.668427
 H         5.547019        -0.701086         0.986019
 H         4.952803         0.546164         1.980296
 H         4.498829        -1.013682         2.437750
 H         2.260765        -2.030560         0.103828
 H         1.693402        -1.478229         1.836446
 H        -0.556554         0.053753         0.878609
 H        -0.279969         1.011293        -0.674297
 H        -0.475320        -0.750501        -0.751624
 H         4.211334         0.721176        -1.010104
 H         2.246828         2.756250         1.175271
