19
Iteration:  4590charge 0 multiplicity 1
 C         4.670250        -0.406456         1.604370
 C         3.385284        -0.256232         0.873017
 C         2.183774        -1.276017         0.750987
 C         1.403656        -0.138629         0.038535
 C        -0.088022        -0.022599        -0.098913
 O         2.190844         0.080052        -1.172000
 C         3.256826         0.689321        -0.407960
 C         2.401911         0.974766         0.768387
 O         2.163773         2.111778         1.594829
 H         5.237749        -1.144567         1.152222
 H         5.174834         0.585369         1.752126
 H         4.528013        -0.758339         2.603553
 H         2.544458        -2.030671         0.123421
 H         1.943503        -1.580023         1.733799
 H        -0.441360         0.302362         0.867691
 H        -0.304053         0.845380        -0.769562
 H        -0.626478        -0.933074        -0.417772
 H         4.104249         1.254735        -0.904920
 H         2.452521         2.877062         1.246060
